 ****** HSPICE -- P-2019.06-SP1-1 win64 (Sep 27 2019) ******                    
  Copyright (c) 1986 - 2022 by Synopsys, Inc. All Rights Reserved.              
  This software and the associated documentation are proprietary
  to Synopsys, Inc. This software may only be used in accordance
  with the terms and conditions of a written license agreement with
  Synopsys, Inc. All other use, reproduction, or distribution of
  this software is strictly prohibited.
  Input File: bus32seg16.sp                                                     
  Command line options: C:\synopsys\Hspice_P-2019.06-SP1-1\WIN64\hspice.com -i bus32seg16.sp -o D:\workspace\circuit_analysis\project3-5\src\bus32seg16.lis
  Start time: Sun Nov 27 16:04:05 2022
  lic:  
  lic: FLEXlm: SDK_12.3 
  lic: USER:   44919                HOSTNAME: CZJ 
  lic: HOSTID: "3cf01186422d"       PID:      3520 
  lic: Using FLEXlm license file: 
  lic: 27000@CZJ 
  lic: Checkout 1 hspice 
  lic: License/Maintenance for hspice will expire on 30-dec-2030/2030.12 
  lic: 1(in_use)/99(total) FLOATING license(s) on SERVER 27000@CZJ 
  lic:   
1****** HSPICE -- P-2019.06-SP1-1 win64 (Sep 27 2019) ******                    
 ******  
 *a bus interconnect circuit with 34 bus line 16 segment.

 ****** circuit name directory
 circuit number to circuit name directory
   number circuitname                     definition         multiplier
        0 main circuit
        1 x1.                             intercon           1.00 
  **info** (bus32seg16.sp:36) DC voltage reset to initial transient source value in source 0:iin1. new dc=0.0000D+00
  **warning** For .option genk=1, 0 implicit mutual inductors are generated!

             
 Summary of Linear Res Distribution Info
 -----------------------------------------------------
 |Range                        |Total     |Percent(%)|
 |-----------------------------+----------+----------|
 |1.000000e-01  ~  1.000000e+00|3         |0.5181    |
 |1.000000e+00  ~  1.000000e+03|576       |99.4819   |
 -----------------------------------------------------
              
             
 Summary of Linear Cap Distribution Info
 -----------------------------------------------------
 |Range                        |Total     |Percent(%)|
 |-----------------------------+----------+----------|
 |1.000000e-15  ~  1.000000e-14|117       |1.2227    |
 |1.000000e-14  ~  1.000000e-13|9420      |98.4429   |
 |1.000000e-13  ~  1.000000e-12|32        |0.3344    |
 -----------------------------------------------------
              
             
 Summary of Detailed RC Type Statistics
 -------------------------
 |Element Type|Number    |
 |------------+----------|
 |Constant Res|579       |
 |            |          |
 |Constant Cap|9569      |
 -------------------------
              
  
      
 *****************************************************************
 ******  option summary
 ******
 runlvl  = 3         bypass  = 2.0000    
 **info** dc convergence successful at Newton-Raphson method 
 ******  
 *a bus interconnect circuit with 34 bus line 16 segment.

 ****** operating point information tnom=  25.000 temp=  25.000 ******
 ****** operating point status is voltage   simulation time is     0.     
    node    =voltage      node    =voltage      node    =voltage

 +0:tdn10a1 =   0.      0:tdn10a9 =   0.      0:tdn11a1 =   0.     
 +0:tdn11a9 =   0.      0:tdn12a1 =   0.      0:tdn12a9 =   0.     
 +0:tdn13a1 =   0.      0:tdn13a9 =   0.      0:tdn14a1 =   0.     
 +0:tdn14a9 =   0.      0:tdn15a1 =   0.      0:tdn15a9 =   0.     
 +0:tdn16a1 =   0.      0:tdn16a9 =   0.      0:tdn17a1 =   0.     
 +0:tdn17a9 =   0.      0:tdn18a1 =   0.      0:tdn18a9 =   0.     
 +0:tdn19a1 =   0.      0:tdn19a9 =   0.      0:tdn1a1  =   0.     
 +0:tdn1a9  =   0.      0:tdn20a1 =   0.      0:tdn20a9 =   0.     
 +0:tdn21a1 =   0.      0:tdn21a9 =   0.      0:tdn22a1 =   0.     
 +0:tdn22a9 =   0.      0:tdn23a1 =   0.      0:tdn23a9 =   0.     
 +0:tdn24a1 =   0.      0:tdn24a9 =   0.      0:tdn25a1 =   0.     
 +0:tdn25a9 =   0.      0:tdn26a1 =   0.      0:tdn26a9 =   0.     
 +0:tdn27a1 =   0.      0:tdn27a9 =   0.      0:tdn28a1 =   0.     
 +0:tdn28a9 =   0.      0:tdn29a1 =   0.      0:tdn29a9 =   0.     
 +0:tdn2a1  =   0.      0:tdn2a9  =   0.      0:tdn30a1 =   0.     
 +0:tdn30a9 =   0.      0:tdn31a1 =   0.      0:tdn31a9 =   0.     
 +0:tdn32a1 =   0.      0:tdn32a9 =   0.      0:tdn3a1  =   0.     
 +0:tdn3a9  =   0.      0:tdn4a1  =   0.      0:tdn4a9  =   0.     
 +0:tdn5a1  =   0.      0:tdn5a9  =   0.      0:tdn6a1  =   0.     
 +0:tdn6a9  =   0.      0:tdn7a1  =   0.      0:tdn7a9  =   0.     
 +0:tdn8a1  =   0.      0:tdn8a9  =   0.      0:tdn9a1  =   0.     
 +0:tdn9a9  =   0.      0:tdnga1  =   0.      0:tdnga9  =   0.     
 +0:tdnva1  =   0.      0:tdnva9  =   0.      1:tdn10a10=   0.     
 +1:tdn10a11=   0.      1:tdn10a12=   0.      1:tdn10a13=   0.     
 +1:tdn10a14=   0.      1:tdn10a15=   0.      1:tdn10a16=   0.     
 +1:tdn10a17=   0.      1:tdn10a18=   0.      1:tdn10a19=   0.     
 +1:tdn10a2 =   0.      1:tdn10a20=   0.      1:tdn10a21=   0.     
 +1:tdn10a22=   0.      1:tdn10a23=   0.      1:tdn10a24=   0.     
 +1:tdn10a25=   0.      1:tdn10a26=   0.      1:tdn10a27=   0.     
 +1:tdn10a28=   0.      1:tdn10a29=   0.      1:tdn10a3 =   0.     
 +1:tdn10a30=   0.      1:tdn10a31=   0.      1:tdn10a32=   0.     
 +1:tdn10a4 =   0.      1:tdn10a5 =   0.      1:tdn10a6 =   0.     
 +1:tdn10a7 =   0.      1:tdn10a8 =   0.      1:tdn10a9 =   0.     
 +1:tdn11a10=   0.      1:tdn11a11=   0.      1:tdn11a12=   0.     
 +1:tdn11a13=   0.      1:tdn11a14=   0.      1:tdn11a15=   0.     
 +1:tdn11a16=   0.      1:tdn11a17=   0.      1:tdn11a18=   0.     
 +1:tdn11a19=   0.      1:tdn11a2 =   0.      1:tdn11a20=   0.     
 +1:tdn11a21=   0.      1:tdn11a22=   0.      1:tdn11a23=   0.     
 +1:tdn11a24=   0.      1:tdn11a25=   0.      1:tdn11a26=   0.     
 +1:tdn11a27=   0.      1:tdn11a28=   0.      1:tdn11a29=   0.     
 +1:tdn11a3 =   0.      1:tdn11a30=   0.      1:tdn11a31=   0.     
 +1:tdn11a32=   0.      1:tdn11a4 =   0.      1:tdn11a5 =   0.     
 +1:tdn11a6 =   0.      1:tdn11a7 =   0.      1:tdn11a8 =   0.     
 +1:tdn11a9 =   0.      1:tdn12a10=   0.      1:tdn12a11=   0.     
 +1:tdn12a12=   0.      1:tdn12a13=   0.      1:tdn12a14=   0.     
 +1:tdn12a15=   0.      1:tdn12a16=   0.      1:tdn12a17=   0.     
 +1:tdn12a18=   0.      1:tdn12a19=   0.      1:tdn12a2 =   0.     
 +1:tdn12a20=   0.      1:tdn12a21=   0.      1:tdn12a22=   0.     
 +1:tdn12a23=   0.      1:tdn12a24=   0.      1:tdn12a25=   0.     
 +1:tdn12a26=   0.      1:tdn12a27=   0.      1:tdn12a28=   0.     
 +1:tdn12a29=   0.      1:tdn12a3 =   0.      1:tdn12a30=   0.     
 +1:tdn12a31=   0.      1:tdn12a32=   0.      1:tdn12a4 =   0.     
 +1:tdn12a5 =   0.      1:tdn12a6 =   0.      1:tdn12a7 =   0.     
 +1:tdn12a8 =   0.      1:tdn12a9 =   0.      1:tdn13a10=   0.     
 +1:tdn13a11=   0.      1:tdn13a12=   0.      1:tdn13a13=   0.     
 +1:tdn13a14=   0.      1:tdn13a15=   0.      1:tdn13a16=   0.     
 +1:tdn13a17=   0.      1:tdn13a18=   0.      1:tdn13a19=   0.     
 +1:tdn13a2 =   0.      1:tdn13a20=   0.      1:tdn13a21=   0.     
 +1:tdn13a22=   0.      1:tdn13a23=   0.      1:tdn13a24=   0.     
 +1:tdn13a25=   0.      1:tdn13a26=   0.      1:tdn13a27=   0.     
 +1:tdn13a28=   0.      1:tdn13a29=   0.      1:tdn13a3 =   0.     
 +1:tdn13a30=   0.      1:tdn13a31=   0.      1:tdn13a32=   0.     
 +1:tdn13a4 =   0.      1:tdn13a5 =   0.      1:tdn13a6 =   0.     
 +1:tdn13a7 =   0.      1:tdn13a8 =   0.      1:tdn13a9 =   0.     
 +1:tdn14a10=   0.      1:tdn14a11=   0.      1:tdn14a12=   0.     
 +1:tdn14a13=   0.      1:tdn14a14=   0.      1:tdn14a15=   0.     
 +1:tdn14a16=   0.      1:tdn14a17=   0.      1:tdn14a18=   0.     
 +1:tdn14a19=   0.      1:tdn14a2 =   0.      1:tdn14a20=   0.     
 +1:tdn14a21=   0.      1:tdn14a22=   0.      1:tdn14a23=   0.     
 +1:tdn14a24=   0.      1:tdn14a25=   0.      1:tdn14a26=   0.     
 +1:tdn14a27=   0.      1:tdn14a28=   0.      1:tdn14a29=   0.     
 +1:tdn14a3 =   0.      1:tdn14a30=   0.      1:tdn14a31=   0.     
 +1:tdn14a32=   0.      1:tdn14a4 =   0.      1:tdn14a5 =   0.     
 +1:tdn14a6 =   0.      1:tdn14a7 =   0.      1:tdn14a8 =   0.     
 +1:tdn14a9 =   0.      1:tdn15a10=   0.      1:tdn15a11=   0.     
 +1:tdn15a12=   0.      1:tdn15a13=   0.      1:tdn15a14=   0.     
 +1:tdn15a15=   0.      1:tdn15a16=   0.      1:tdn15a17=   0.     
 +1:tdn15a18=   0.      1:tdn15a19=   0.      1:tdn15a2 =   0.     
 +1:tdn15a20=   0.      1:tdn15a21=   0.      1:tdn15a22=   0.     
 +1:tdn15a23=   0.      1:tdn15a24=   0.      1:tdn15a25=   0.     
 +1:tdn15a26=   0.      1:tdn15a27=   0.      1:tdn15a28=   0.     
 +1:tdn15a29=   0.      1:tdn15a3 =   0.      1:tdn15a30=   0.     
 +1:tdn15a31=   0.      1:tdn15a32=   0.      1:tdn15a4 =   0.     
 +1:tdn15a5 =   0.      1:tdn15a6 =   0.      1:tdn15a7 =   0.     
 +1:tdn15a8 =   0.      1:tdn15a9 =   0.      1:tdn16a10=   0.     
 +1:tdn16a11=   0.      1:tdn16a12=   0.      1:tdn16a13=   0.     
 +1:tdn16a14=   0.      1:tdn16a15=   0.      1:tdn16a16=   0.     
 +1:tdn16a17=   0.      1:tdn16a18=   0.      1:tdn16a19=   0.     
 +1:tdn16a2 =   0.      1:tdn16a20=   0.      1:tdn16a21=   0.     
 +1:tdn16a22=   0.      1:tdn16a23=   0.      1:tdn16a24=   0.     
 +1:tdn16a25=   0.      1:tdn16a26=   0.      1:tdn16a27=   0.     
 +1:tdn16a28=   0.      1:tdn16a29=   0.      1:tdn16a3 =   0.     
 +1:tdn16a30=   0.      1:tdn16a31=   0.      1:tdn16a32=   0.     
 +1:tdn16a4 =   0.      1:tdn16a5 =   0.      1:tdn16a6 =   0.     
 +1:tdn16a7 =   0.      1:tdn16a8 =   0.      1:tdn16a9 =   0.     
 +1:tdn17a10=   0.      1:tdn17a11=   0.      1:tdn17a12=   0.     
 +1:tdn17a13=   0.      1:tdn17a14=   0.      1:tdn17a15=   0.     
 +1:tdn17a16=   0.      1:tdn17a17=   0.      1:tdn17a18=   0.     
 +1:tdn17a19=   0.      1:tdn17a2 =   0.      1:tdn17a20=   0.     
 +1:tdn17a21=   0.      1:tdn17a22=   0.      1:tdn17a23=   0.     
 +1:tdn17a24=   0.      1:tdn17a25=   0.      1:tdn17a26=   0.     
 +1:tdn17a27=   0.      1:tdn17a28=   0.      1:tdn17a29=   0.     
 +1:tdn17a3 =   0.      1:tdn17a30=   0.      1:tdn17a31=   0.     
 +1:tdn17a32=   0.      1:tdn17a4 =   0.      1:tdn17a5 =   0.     
 +1:tdn17a6 =   0.      1:tdn17a7 =   0.      1:tdn17a8 =   0.     
 +1:tdn17a9 =   0.      1:tdn18a10=   0.      1:tdn18a11=   0.     
 +1:tdn18a12=   0.      1:tdn18a13=   0.      1:tdn18a14=   0.     
 +1:tdn18a15=   0.      1:tdn18a16=   0.      1:tdn18a17=   0.     
 +1:tdn18a18=   0.      1:tdn18a19=   0.      1:tdn18a2 =   0.     
 +1:tdn18a20=   0.      1:tdn18a21=   0.      1:tdn18a22=   0.     
 +1:tdn18a23=   0.      1:tdn18a24=   0.      1:tdn18a25=   0.     
 +1:tdn18a26=   0.      1:tdn18a27=   0.      1:tdn18a28=   0.     
 +1:tdn18a29=   0.      1:tdn18a3 =   0.      1:tdn18a30=   0.     
 +1:tdn18a31=   0.      1:tdn18a32=   0.      1:tdn18a4 =   0.     
 +1:tdn18a5 =   0.      1:tdn18a6 =   0.      1:tdn18a7 =   0.     
 +1:tdn18a8 =   0.      1:tdn18a9 =   0.      1:tdn19a10=   0.     
 +1:tdn19a11=   0.      1:tdn19a12=   0.      1:tdn19a13=   0.     
 +1:tdn19a14=   0.      1:tdn19a15=   0.      1:tdn19a16=   0.     
 +1:tdn19a17=   0.      1:tdn19a18=   0.      1:tdn19a19=   0.     
 +1:tdn19a2 =   0.      1:tdn19a20=   0.      1:tdn19a21=   0.     
 +1:tdn19a22=   0.      1:tdn19a23=   0.      1:tdn19a24=   0.     
 +1:tdn19a25=   0.      1:tdn19a26=   0.      1:tdn19a27=   0.     
 +1:tdn19a28=   0.      1:tdn19a29=   0.      1:tdn19a3 =   0.     
 +1:tdn19a30=   0.      1:tdn19a31=   0.      1:tdn19a32=   0.     
 +1:tdn19a4 =   0.      1:tdn19a5 =   0.      1:tdn19a6 =   0.     
 +1:tdn19a7 =   0.      1:tdn19a8 =   0.      1:tdn19a9 =   0.     
 +1:tdn1a10 =   0.      1:tdn1a11 =   0.      1:tdn1a12 =   0.     
 +1:tdn1a13 =   0.      1:tdn1a14 =   0.      1:tdn1a15 =   0.     
 +1:tdn1a16 =   0.      1:tdn1a17 =   0.      1:tdn1a18 =   0.     
 +1:tdn1a19 =   0.      1:tdn1a2  =   0.      1:tdn1a20 =   0.     
 +1:tdn1a21 =   0.      1:tdn1a22 =   0.      1:tdn1a23 =   0.     
 +1:tdn1a24 =   0.      1:tdn1a25 =   0.      1:tdn1a26 =   0.     
 +1:tdn1a27 =   0.      1:tdn1a28 =   0.      1:tdn1a29 =   0.     
 +1:tdn1a3  =   0.      1:tdn1a30 =   0.      1:tdn1a31 =   0.     
 +1:tdn1a32 =   0.      1:tdn1a4  =   0.      1:tdn1a5  =   0.     
 +1:tdn1a6  =   0.      1:tdn1a7  =   0.      1:tdn1a8  =   0.     
 +1:tdn1a9  =   0.      1:tdn20a10=   0.      1:tdn20a11=   0.     
 +1:tdn20a12=   0.      1:tdn20a13=   0.      1:tdn20a14=   0.     
 +1:tdn20a15=   0.      1:tdn20a16=   0.      1:tdn20a17=   0.     
 +1:tdn20a18=   0.      1:tdn20a19=   0.      1:tdn20a2 =   0.     
 +1:tdn20a20=   0.      1:tdn20a21=   0.      1:tdn20a22=   0.     
 +1:tdn20a23=   0.      1:tdn20a24=   0.      1:tdn20a25=   0.     
 +1:tdn20a26=   0.      1:tdn20a27=   0.      1:tdn20a28=   0.     
 +1:tdn20a29=   0.      1:tdn20a3 =   0.      1:tdn20a30=   0.     
 +1:tdn20a31=   0.      1:tdn20a32=   0.      1:tdn20a4 =   0.     
 +1:tdn20a5 =   0.      1:tdn20a6 =   0.      1:tdn20a7 =   0.     
 +1:tdn20a8 =   0.      1:tdn20a9 =   0.      1:tdn21a10=   0.     
 +1:tdn21a11=   0.      1:tdn21a12=   0.      1:tdn21a13=   0.     
 +1:tdn21a14=   0.      1:tdn21a15=   0.      1:tdn21a16=   0.     
 +1:tdn21a17=   0.      1:tdn21a18=   0.      1:tdn21a19=   0.     
 +1:tdn21a2 =   0.      1:tdn21a20=   0.      1:tdn21a21=   0.     
 +1:tdn21a22=   0.      1:tdn21a23=   0.      1:tdn21a24=   0.     
 +1:tdn21a25=   0.      1:tdn21a26=   0.      1:tdn21a27=   0.     
 +1:tdn21a28=   0.      1:tdn21a29=   0.      1:tdn21a3 =   0.     
 +1:tdn21a30=   0.      1:tdn21a31=   0.      1:tdn21a32=   0.     
 +1:tdn21a4 =   0.      1:tdn21a5 =   0.      1:tdn21a6 =   0.     
 +1:tdn21a7 =   0.      1:tdn21a8 =   0.      1:tdn21a9 =   0.     
 +1:tdn22a10=   0.      1:tdn22a11=   0.      1:tdn22a12=   0.     
 +1:tdn22a13=   0.      1:tdn22a14=   0.      1:tdn22a15=   0.     
 +1:tdn22a16=   0.      1:tdn22a17=   0.      1:tdn22a18=   0.     
 +1:tdn22a19=   0.      1:tdn22a2 =   0.      1:tdn22a20=   0.     
 +1:tdn22a21=   0.      1:tdn22a22=   0.      1:tdn22a23=   0.     
 +1:tdn22a24=   0.      1:tdn22a25=   0.      1:tdn22a26=   0.     
 +1:tdn22a27=   0.      1:tdn22a28=   0.      1:tdn22a29=   0.     
 +1:tdn22a3 =   0.      1:tdn22a30=   0.      1:tdn22a31=   0.     
 +1:tdn22a32=   0.      1:tdn22a4 =   0.      1:tdn22a5 =   0.     
 +1:tdn22a6 =   0.      1:tdn22a7 =   0.      1:tdn22a8 =   0.     
 +1:tdn22a9 =   0.      1:tdn23a10=   0.      1:tdn23a11=   0.     
 +1:tdn23a12=   0.      1:tdn23a13=   0.      1:tdn23a14=   0.     
 +1:tdn23a15=   0.      1:tdn23a16=   0.      1:tdn23a17=   0.     
 +1:tdn23a18=   0.      1:tdn23a19=   0.      1:tdn23a2 =   0.     
 +1:tdn23a20=   0.      1:tdn23a21=   0.      1:tdn23a22=   0.     
 +1:tdn23a23=   0.      1:tdn23a24=   0.      1:tdn23a25=   0.     
 +1:tdn23a26=   0.      1:tdn23a27=   0.      1:tdn23a28=   0.     
 +1:tdn23a29=   0.      1:tdn23a3 =   0.      1:tdn23a30=   0.     
 +1:tdn23a31=   0.      1:tdn23a32=   0.      1:tdn23a4 =   0.     
 +1:tdn23a5 =   0.      1:tdn23a6 =   0.      1:tdn23a7 =   0.     
 +1:tdn23a8 =   0.      1:tdn23a9 =   0.      1:tdn24a10=   0.     
 +1:tdn24a11=   0.      1:tdn24a12=   0.      1:tdn24a13=   0.     
 +1:tdn24a14=   0.      1:tdn24a15=   0.      1:tdn24a16=   0.     
 +1:tdn24a17=   0.      1:tdn24a18=   0.      1:tdn24a19=   0.     
 +1:tdn24a2 =   0.      1:tdn24a20=   0.      1:tdn24a21=   0.     
 +1:tdn24a22=   0.      1:tdn24a23=   0.      1:tdn24a24=   0.     
 +1:tdn24a25=   0.      1:tdn24a26=   0.      1:tdn24a27=   0.     
 +1:tdn24a28=   0.      1:tdn24a29=   0.      1:tdn24a3 =   0.     
 +1:tdn24a30=   0.      1:tdn24a31=   0.      1:tdn24a32=   0.     
 +1:tdn24a4 =   0.      1:tdn24a5 =   0.      1:tdn24a6 =   0.     
 +1:tdn24a7 =   0.      1:tdn24a8 =   0.      1:tdn24a9 =   0.     
 +1:tdn25a10=   0.      1:tdn25a11=   0.      1:tdn25a12=   0.     
 +1:tdn25a13=   0.      1:tdn25a14=   0.      1:tdn25a15=   0.     
 +1:tdn25a16=   0.      1:tdn25a17=   0.      1:tdn25a18=   0.     
 +1:tdn25a19=   0.      1:tdn25a2 =   0.      1:tdn25a20=   0.     
 +1:tdn25a21=   0.      1:tdn25a22=   0.      1:tdn25a23=   0.     
 +1:tdn25a24=   0.      1:tdn25a25=   0.      1:tdn25a26=   0.     
 +1:tdn25a27=   0.      1:tdn25a28=   0.      1:tdn25a29=   0.     
 +1:tdn25a3 =   0.      1:tdn25a30=   0.      1:tdn25a31=   0.     
 +1:tdn25a32=   0.      1:tdn25a4 =   0.      1:tdn25a5 =   0.     
 +1:tdn25a6 =   0.      1:tdn25a7 =   0.      1:tdn25a8 =   0.     
 +1:tdn25a9 =   0.      1:tdn26a10=   0.      1:tdn26a11=   0.     
 +1:tdn26a12=   0.      1:tdn26a13=   0.      1:tdn26a14=   0.     
 +1:tdn26a15=   0.      1:tdn26a16=   0.      1:tdn26a17=   0.     
 +1:tdn26a18=   0.      1:tdn26a19=   0.      1:tdn26a2 =   0.     
 +1:tdn26a20=   0.      1:tdn26a21=   0.      1:tdn26a22=   0.     
 +1:tdn26a23=   0.      1:tdn26a24=   0.      1:tdn26a25=   0.     
 +1:tdn26a26=   0.      1:tdn26a27=   0.      1:tdn26a28=   0.     
 +1:tdn26a29=   0.      1:tdn26a3 =   0.      1:tdn26a30=   0.     
 +1:tdn26a31=   0.      1:tdn26a32=   0.      1:tdn26a4 =   0.     
 +1:tdn26a5 =   0.      1:tdn26a6 =   0.      1:tdn26a7 =   0.     
 +1:tdn26a8 =   0.      1:tdn26a9 =   0.      1:tdn27a10=   0.     
 +1:tdn27a11=   0.      1:tdn27a12=   0.      1:tdn27a13=   0.     
 +1:tdn27a14=   0.      1:tdn27a15=   0.      1:tdn27a16=   0.     
 +1:tdn27a17=   0.      1:tdn27a18=   0.      1:tdn27a19=   0.     
 +1:tdn27a2 =   0.      1:tdn27a20=   0.      1:tdn27a21=   0.     
 +1:tdn27a22=   0.      1:tdn27a23=   0.      1:tdn27a24=   0.     
 +1:tdn27a25=   0.      1:tdn27a26=   0.      1:tdn27a27=   0.     
 +1:tdn27a28=   0.      1:tdn27a29=   0.      1:tdn27a3 =   0.     
 +1:tdn27a30=   0.      1:tdn27a31=   0.      1:tdn27a32=   0.     
 +1:tdn27a4 =   0.      1:tdn27a5 =   0.      1:tdn27a6 =   0.     
 +1:tdn27a7 =   0.      1:tdn27a8 =   0.      1:tdn27a9 =   0.     
 +1:tdn28a10=   0.      1:tdn28a11=   0.      1:tdn28a12=   0.     
 +1:tdn28a13=   0.      1:tdn28a14=   0.      1:tdn28a15=   0.     
 +1:tdn28a16=   0.      1:tdn28a17=   0.      1:tdn28a18=   0.     
 +1:tdn28a19=   0.      1:tdn28a2 =   0.      1:tdn28a20=   0.     
 +1:tdn28a21=   0.      1:tdn28a22=   0.      1:tdn28a23=   0.     
 +1:tdn28a24=   0.      1:tdn28a25=   0.      1:tdn28a26=   0.     
 +1:tdn28a27=   0.      1:tdn28a28=   0.      1:tdn28a29=   0.     
 +1:tdn28a3 =   0.      1:tdn28a30=   0.      1:tdn28a31=   0.     
 +1:tdn28a32=   0.      1:tdn28a4 =   0.      1:tdn28a5 =   0.     
 +1:tdn28a6 =   0.      1:tdn28a7 =   0.      1:tdn28a8 =   0.     
 +1:tdn28a9 =   0.      1:tdn29a10=   0.      1:tdn29a11=   0.     
 +1:tdn29a12=   0.      1:tdn29a13=   0.      1:tdn29a14=   0.     
 +1:tdn29a15=   0.      1:tdn29a16=   0.      1:tdn29a17=   0.     
 +1:tdn29a18=   0.      1:tdn29a19=   0.      1:tdn29a2 =   0.     
 +1:tdn29a20=   0.      1:tdn29a21=   0.      1:tdn29a22=   0.     
 +1:tdn29a23=   0.      1:tdn29a24=   0.      1:tdn29a25=   0.     
 +1:tdn29a26=   0.      1:tdn29a27=   0.      1:tdn29a28=   0.     
 +1:tdn29a29=   0.      1:tdn29a3 =   0.      1:tdn29a30=   0.     
 +1:tdn29a31=   0.      1:tdn29a32=   0.      1:tdn29a4 =   0.     
 +1:tdn29a5 =   0.      1:tdn29a6 =   0.      1:tdn29a7 =   0.     
 +1:tdn29a8 =   0.      1:tdn29a9 =   0.      1:tdn2a10 =   0.     
 +1:tdn2a11 =   0.      1:tdn2a12 =   0.      1:tdn2a13 =   0.     
 +1:tdn2a14 =   0.      1:tdn2a15 =   0.      1:tdn2a16 =   0.     
 +1:tdn2a17 =   0.      1:tdn2a18 =   0.      1:tdn2a19 =   0.     
 +1:tdn2a2  =   0.      1:tdn2a20 =   0.      1:tdn2a21 =   0.     
 +1:tdn2a22 =   0.      1:tdn2a23 =   0.      1:tdn2a24 =   0.     
 +1:tdn2a25 =   0.      1:tdn2a26 =   0.      1:tdn2a27 =   0.     
 +1:tdn2a28 =   0.      1:tdn2a29 =   0.      1:tdn2a3  =   0.     
 +1:tdn2a30 =   0.      1:tdn2a31 =   0.      1:tdn2a32 =   0.     
 +1:tdn2a4  =   0.      1:tdn2a5  =   0.      1:tdn2a6  =   0.     
 +1:tdn2a7  =   0.      1:tdn2a8  =   0.      1:tdn2a9  =   0.     
 +1:tdn30a10=   0.      1:tdn30a11=   0.      1:tdn30a12=   0.     
 +1:tdn30a13=   0.      1:tdn30a14=   0.      1:tdn30a15=   0.     
 +1:tdn30a16=   0.      1:tdn30a17=   0.      1:tdn30a18=   0.     
 +1:tdn30a19=   0.      1:tdn30a2 =   0.      1:tdn30a20=   0.     
 +1:tdn30a21=   0.      1:tdn30a22=   0.      1:tdn30a23=   0.     
 +1:tdn30a24=   0.      1:tdn30a25=   0.      1:tdn30a26=   0.     
 +1:tdn30a27=   0.      1:tdn30a28=   0.      1:tdn30a29=   0.     
 +1:tdn30a3 =   0.      1:tdn30a30=   0.      1:tdn30a31=   0.     
 +1:tdn30a32=   0.      1:tdn30a4 =   0.      1:tdn30a5 =   0.     
 +1:tdn30a6 =   0.      1:tdn30a7 =   0.      1:tdn30a8 =   0.     
 +1:tdn30a9 =   0.      1:tdn31a10=   0.      1:tdn31a11=   0.     
 +1:tdn31a12=   0.      1:tdn31a13=   0.      1:tdn31a14=   0.     
 +1:tdn31a15=   0.      1:tdn31a16=   0.      1:tdn31a17=   0.     
 +1:tdn31a18=   0.      1:tdn31a19=   0.      1:tdn31a2 =   0.     
 +1:tdn31a20=   0.      1:tdn31a21=   0.      1:tdn31a22=   0.     
 +1:tdn31a23=   0.      1:tdn31a24=   0.      1:tdn31a25=   0.     
 +1:tdn31a26=   0.      1:tdn31a27=   0.      1:tdn31a28=   0.     
 +1:tdn31a29=   0.      1:tdn31a3 =   0.      1:tdn31a30=   0.     
 +1:tdn31a31=   0.      1:tdn31a32=   0.      1:tdn31a4 =   0.     
 +1:tdn31a5 =   0.      1:tdn31a6 =   0.      1:tdn31a7 =   0.     
 +1:tdn31a8 =   0.      1:tdn31a9 =   0.      1:tdn32a10=   0.     
 +1:tdn32a11=   0.      1:tdn32a12=   0.      1:tdn32a13=   0.     
 +1:tdn32a14=   0.      1:tdn32a15=   0.      1:tdn32a16=   0.     
 +1:tdn32a17=   0.      1:tdn32a18=   0.      1:tdn32a19=   0.     
 +1:tdn32a2 =   0.      1:tdn32a20=   0.      1:tdn32a21=   0.     
 +1:tdn32a22=   0.      1:tdn32a23=   0.      1:tdn32a24=   0.     
 +1:tdn32a25=   0.      1:tdn32a26=   0.      1:tdn32a27=   0.     
 +1:tdn32a28=   0.      1:tdn32a29=   0.      1:tdn32a3 =   0.     
 +1:tdn32a30=   0.      1:tdn32a31=   0.      1:tdn32a32=   0.     
 +1:tdn32a4 =   0.      1:tdn32a5 =   0.      1:tdn32a6 =   0.     
 +1:tdn32a7 =   0.      1:tdn32a8 =   0.      1:tdn32a9 =   0.     
 +1:tdn3a10 =   0.      1:tdn3a11 =   0.      1:tdn3a12 =   0.     
 +1:tdn3a13 =   0.      1:tdn3a14 =   0.      1:tdn3a15 =   0.     
 +1:tdn3a16 =   0.      1:tdn3a17 =   0.      1:tdn3a18 =   0.     
 +1:tdn3a19 =   0.      1:tdn3a2  =   0.      1:tdn3a20 =   0.     
 +1:tdn3a21 =   0.      1:tdn3a22 =   0.      1:tdn3a23 =   0.     
 +1:tdn3a24 =   0.      1:tdn3a25 =   0.      1:tdn3a26 =   0.     
 +1:tdn3a27 =   0.      1:tdn3a28 =   0.      1:tdn3a29 =   0.     
 +1:tdn3a3  =   0.      1:tdn3a30 =   0.      1:tdn3a31 =   0.     
 +1:tdn3a32 =   0.      1:tdn3a4  =   0.      1:tdn3a5  =   0.     
 +1:tdn3a6  =   0.      1:tdn3a7  =   0.      1:tdn3a8  =   0.     
 +1:tdn3a9  =   0.      1:tdn4a10 =   0.      1:tdn4a11 =   0.     
 +1:tdn4a12 =   0.      1:tdn4a13 =   0.      1:tdn4a14 =   0.     
 +1:tdn4a15 =   0.      1:tdn4a16 =   0.      1:tdn4a17 =   0.     
 +1:tdn4a18 =   0.      1:tdn4a19 =   0.      1:tdn4a2  =   0.     
 +1:tdn4a20 =   0.      1:tdn4a21 =   0.      1:tdn4a22 =   0.     
 +1:tdn4a23 =   0.      1:tdn4a24 =   0.      1:tdn4a25 =   0.     
 +1:tdn4a26 =   0.      1:tdn4a27 =   0.      1:tdn4a28 =   0.     
 +1:tdn4a29 =   0.      1:tdn4a3  =   0.      1:tdn4a30 =   0.     
 +1:tdn4a31 =   0.      1:tdn4a32 =   0.      1:tdn4a4  =   0.     
 +1:tdn4a5  =   0.      1:tdn4a6  =   0.      1:tdn4a7  =   0.     
 +1:tdn4a8  =   0.      1:tdn4a9  =   0.      1:tdn5a10 =   0.     
 +1:tdn5a11 =   0.      1:tdn5a12 =   0.      1:tdn5a13 =   0.     
 +1:tdn5a14 =   0.      1:tdn5a15 =   0.      1:tdn5a16 =   0.     
 +1:tdn5a17 =   0.      1:tdn5a18 =   0.      1:tdn5a19 =   0.     
 +1:tdn5a2  =   0.      1:tdn5a20 =   0.      1:tdn5a21 =   0.     
 +1:tdn5a22 =   0.      1:tdn5a23 =   0.      1:tdn5a24 =   0.     
 +1:tdn5a25 =   0.      1:tdn5a26 =   0.      1:tdn5a27 =   0.     
 +1:tdn5a28 =   0.      1:tdn5a29 =   0.      1:tdn5a3  =   0.     
 +1:tdn5a30 =   0.      1:tdn5a31 =   0.      1:tdn5a32 =   0.     
 +1:tdn5a4  =   0.      1:tdn5a5  =   0.      1:tdn5a6  =   0.     
 +1:tdn5a7  =   0.      1:tdn5a8  =   0.      1:tdn5a9  =   0.     
 +1:tdn6a10 =   0.      1:tdn6a11 =   0.      1:tdn6a12 =   0.     
 +1:tdn6a13 =   0.      1:tdn6a14 =   0.      1:tdn6a15 =   0.     
 +1:tdn6a16 =   0.      1:tdn6a17 =   0.      1:tdn6a18 =   0.     
 +1:tdn6a19 =   0.      1:tdn6a2  =   0.      1:tdn6a20 =   0.     
 +1:tdn6a21 =   0.      1:tdn6a22 =   0.      1:tdn6a23 =   0.     
 +1:tdn6a24 =   0.      1:tdn6a25 =   0.      1:tdn6a26 =   0.     
 +1:tdn6a27 =   0.      1:tdn6a28 =   0.      1:tdn6a29 =   0.     
 +1:tdn6a3  =   0.      1:tdn6a30 =   0.      1:tdn6a31 =   0.     
 +1:tdn6a32 =   0.      1:tdn6a4  =   0.      1:tdn6a5  =   0.     
 +1:tdn6a6  =   0.      1:tdn6a7  =   0.      1:tdn6a8  =   0.     
 +1:tdn6a9  =   0.      1:tdn7a10 =   0.      1:tdn7a11 =   0.     
 +1:tdn7a12 =   0.      1:tdn7a13 =   0.      1:tdn7a14 =   0.     
 +1:tdn7a15 =   0.      1:tdn7a16 =   0.      1:tdn7a17 =   0.     
 +1:tdn7a18 =   0.      1:tdn7a19 =   0.      1:tdn7a2  =   0.     
 +1:tdn7a20 =   0.      1:tdn7a21 =   0.      1:tdn7a22 =   0.     
 +1:tdn7a23 =   0.      1:tdn7a24 =   0.      1:tdn7a25 =   0.     
 +1:tdn7a26 =   0.      1:tdn7a27 =   0.      1:tdn7a28 =   0.     
 +1:tdn7a29 =   0.      1:tdn7a3  =   0.      1:tdn7a30 =   0.     
 +1:tdn7a31 =   0.      1:tdn7a32 =   0.      1:tdn7a4  =   0.     
 +1:tdn7a5  =   0.      1:tdn7a6  =   0.      1:tdn7a7  =   0.     
 +1:tdn7a8  =   0.      1:tdn7a9  =   0.      1:tdn8a10 =   0.     
 +1:tdn8a11 =   0.      1:tdn8a12 =   0.      1:tdn8a13 =   0.     
 +1:tdn8a14 =   0.      1:tdn8a15 =   0.      1:tdn8a16 =   0.     
 +1:tdn8a17 =   0.      1:tdn8a18 =   0.      1:tdn8a19 =   0.     
 +1:tdn8a2  =   0.      1:tdn8a20 =   0.      1:tdn8a21 =   0.     
 +1:tdn8a22 =   0.      1:tdn8a23 =   0.      1:tdn8a24 =   0.     
 +1:tdn8a25 =   0.      1:tdn8a26 =   0.      1:tdn8a27 =   0.     
 +1:tdn8a28 =   0.      1:tdn8a29 =   0.      1:tdn8a3  =   0.     
 +1:tdn8a30 =   0.      1:tdn8a31 =   0.      1:tdn8a32 =   0.     
 +1:tdn8a4  =   0.      1:tdn8a5  =   0.      1:tdn8a6  =   0.     
 +1:tdn8a7  =   0.      1:tdn8a8  =   0.      1:tdn8a9  =   0.     
 +1:tdn9a10 =   0.      1:tdn9a11 =   0.      1:tdn9a12 =   0.     
 +1:tdn9a13 =   0.      1:tdn9a14 =   0.      1:tdn9a15 =   0.     
 +1:tdn9a16 =   0.      1:tdn9a17 =   0.      1:tdn9a18 =   0.     
 +1:tdn9a19 =   0.      1:tdn9a2  =   0.      1:tdn9a20 =   0.     
 +1:tdn9a21 =   0.      1:tdn9a22 =   0.      1:tdn9a23 =   0.     
 +1:tdn9a24 =   0.      1:tdn9a25 =   0.      1:tdn9a26 =   0.     
 +1:tdn9a27 =   0.      1:tdn9a28 =   0.      1:tdn9a29 =   0.     
 +1:tdn9a3  =   0.      1:tdn9a30 =   0.      1:tdn9a31 =   0.     
 +1:tdn9a32 =   0.      1:tdn9a4  =   0.      1:tdn9a5  =   0.     
 +1:tdn9a6  =   0.      1:tdn9a7  =   0.      1:tdn9a8  =   0.     
 +1:tdn9a9  =   0.      1:tdnga10 =   0.      1:tdnga11 =   0.     
 +1:tdnga12 =   0.      1:tdnga13 =   0.      1:tdnga14 =   0.     
 +1:tdnga15 =   0.      1:tdnga16 =   0.      1:tdnga17 =   0.     
 +1:tdnga18 =   0.      1:tdnga19 =   0.      1:tdnga2  =   0.     
 +1:tdnga20 =   0.      1:tdnga21 =   0.      1:tdnga22 =   0.     
 +1:tdnga23 =   0.      1:tdnga24 =   0.      1:tdnga25 =   0.     
 +1:tdnga26 =   0.      1:tdnga27 =   0.      1:tdnga28 =   0.     
 +1:tdnga29 =   0.      1:tdnga3  =   0.      1:tdnga30 =   0.     
 +1:tdnga31 =   0.      1:tdnga32 =   0.      1:tdnga4  =   0.     
 +1:tdnga5  =   0.      1:tdnga6  =   0.      1:tdnga7  =   0.     
 +1:tdnga8  =   0.      1:tdnga9  =   0.      1:tdnva10 =   0.     
 +1:tdnva11 =   0.      1:tdnva12 =   0.      1:tdnva13 =   0.     
 +1:tdnva14 =   0.      1:tdnva15 =   0.      1:tdnva16 =   0.     
 +1:tdnva17 =   0.      1:tdnva18 =   0.      1:tdnva19 =   0.     
 +1:tdnva2  =   0.      1:tdnva20 =   0.      1:tdnva21 =   0.     
 +1:tdnva22 =   0.      1:tdnva23 =   0.      1:tdnva24 =   0.     
 +1:tdnva25 =   0.      1:tdnva26 =   0.      1:tdnva27 =   0.     
 +1:tdnva28 =   0.      1:tdnva29 =   0.      1:tdnva3  =   0.     
 +1:tdnva30 =   0.      1:tdnva31 =   0.      1:tdnva32 =   0.     
 +1:tdnva4  =   0.      1:tdnva5  =   0.      1:tdnva6  =   0.     
 +1:tdnva7  =   0.      1:tdnva8  =   0.      1:tdnva9  =   0.     

 ******
 *a bus interconnect circuit with 34 bus line 16 segment.

 ****** transient analysis tnom=  25.000 temp=  25.000 ******
x

 time         voltage    voltage    voltage    voltage   
             tdn1a9     tdn2a9     tdn3a9     tdn4a9     
    0.          0.         0.         0.         0.      
    1.00000p    0.         0.         0.         0.      
    2.00000p    0.         0.         0.         0.      
    3.00000p    0.         0.         0.         0.      
    4.00000p    0.         0.         0.         0.      
    5.00000p    0.         0.         0.         0.      
    6.00000p    0.         0.         0.         0.      
    7.00000p    0.         0.         0.         0.      
    8.00000p    0.         0.         0.         0.      
    9.00000p    0.         0.         0.         0.      
   10.00000p    0.         0.         0.         0.      
   11.00000p    0.         0.         0.         0.      
   12.00000p    0.         0.         0.         0.      
   13.00000p    0.         0.         0.         0.      
   14.00000p    0.         0.         0.         0.      
   15.00000p    0.         0.         0.         0.      
   16.00000p    0.         0.         0.         0.      
   17.00000p    0.         0.         0.         0.      
   18.00000p    0.         0.         0.         0.      
   19.00000p    0.         0.         0.         0.      
   20.00000p    0.         0.         0.         0.      
   21.00000p    0.         0.         0.         0.      
   22.00000p    0.         0.         0.         0.      
   23.00000p    0.         0.         0.         0.      
   24.00000p    0.         0.         0.         0.      
   25.00000p    0.         0.         0.         0.      
   26.00000p    0.         0.         0.         0.      
   27.00000p    0.         0.         0.         0.      
   28.00000p    0.         0.         0.         0.      
   29.00000p    0.         0.         0.         0.      
   30.00000p    0.         0.         0.         0.      
   31.00000p    0.         0.         0.         0.      
   32.00000p    0.         0.         0.         0.      
   33.00000p    0.         0.         0.         0.      
   34.00000p    0.         0.         0.         0.      
   35.00000p    0.         0.         0.         0.      
   36.00000p    0.         0.         0.         0.      
   37.00000p    0.         0.         0.         0.      
   38.00000p    0.         0.         0.         0.      
   39.00000p    0.         0.         0.         0.      
   40.00000p    0.         0.         0.         0.      
   41.00000p    0.         0.         0.         0.      
   42.00000p    0.         0.         0.         0.      
   43.00000p    0.         0.         0.         0.      
   44.00000p    0.         0.         0.         0.      
   45.00000p    0.         0.         0.         0.      
   46.00000p    0.         0.         0.         0.      
   47.00000p    0.         0.         0.         0.      
   48.00000p    0.         0.         0.         0.      
   49.00000p    0.         0.         0.         0.      
   50.00000p    0.         0.         0.         0.      
   51.00000p  -42.8835m  -42.8835m  -42.8835m  -42.8835m 
   52.00000p  -85.7671m  -85.7671m  -85.7671m  -85.7671m 
   53.00000p -128.6506m -128.6506m -128.6506m -128.6506m 
   54.00000p -171.5341m -171.5341m -171.5341m -171.5341m 
   55.00000p -214.4177m -214.4177m -214.4177m -214.4177m 
   56.00000p -257.3012m -257.3012m -257.3012m -257.3012m 
   57.00000p -300.1847m -300.1847m -300.1847m -300.1847m 
   58.00000p -344.1819m -344.1819m -344.1819m -344.1819m 
   59.00000p -389.2927m -389.2926m -389.2926m -389.2926m 
   60.00000p -434.4035m -434.4033m -434.4034m -434.4034m 
   61.00000p -479.5143m -479.5140m -479.5142m -479.5141m 
   62.00000p -524.6251m -524.6248m -524.6249m -524.6249m 
   63.00000p -569.7359m -569.7355m -569.7357m -569.7356m 
   64.00000p -614.8467m -614.8462m -614.8464m -614.8464m 
   65.00000p -659.9576m -659.9569m -659.9572m -659.9571m 
   66.00000p -705.0684m -705.0677m -705.0679m -705.0679m 
   67.00000p -750.1792m -750.1784m -750.1787m -750.1787m 
   68.00000p -795.2900m -795.2891m -795.2895m -795.2894m 
   69.00000p -840.4008m -840.3998m -840.4002m -840.4002m 
   70.00000p -885.5116m -885.5106m -885.5110m -885.5109m 
   71.00000p -930.6224m -930.6213m -930.6217m -930.6217m 
   72.00000p -975.7332m -975.7320m -975.7325m -975.7324m 
   73.00000p   -1.0208    -1.0208    -1.0208    -1.0208  
   74.00000p   -1.0660    -1.0660    -1.0660    -1.0660  
   75.00000p   -1.1112    -1.1112    -1.1112    -1.1112  
   76.00000p   -1.1580    -1.1580    -1.1580    -1.1580  
   77.00000p   -1.2048    -1.2048    -1.2048    -1.2048  
   78.00000p   -1.2517    -1.2516    -1.2516    -1.2516  
   79.00000p   -1.2985    -1.2984    -1.2985    -1.2985  
   80.00000p   -1.3453    -1.3453    -1.3453    -1.3453  
   81.00000p   -1.3922    -1.3921    -1.3921    -1.3921  
   82.00000p   -1.4390    -1.4389    -1.4389    -1.4389  
   83.00000p   -1.4858    -1.4857    -1.4857    -1.4857  
   84.00000p   -1.5327    -1.5325    -1.5326    -1.5326  
   85.00000p   -1.5795    -1.5794    -1.5794    -1.5794  
   86.00000p   -1.6263    -1.6262    -1.6262    -1.6262  
   87.00000p   -1.6731    -1.6730    -1.6730    -1.6730  
   88.00000p   -1.7200    -1.7198    -1.7199    -1.7199  
   89.00000p   -1.7668    -1.7666    -1.7667    -1.7667  
   90.00000p   -1.8136    -1.8135    -1.8135    -1.8135  
   91.00000p   -1.8605    -1.8603    -1.8603    -1.8603  
   92.00000p   -1.9073    -1.9071    -1.9071    -1.9071  
   93.00000p   -1.9541    -1.9539    -1.9540    -1.9540  
   94.00000p   -2.0010    -2.0007    -2.0008    -2.0008  
   95.00000p   -2.0478    -2.0475    -2.0476    -2.0476  
   96.00000p   -2.0946    -2.0944    -2.0944    -2.0944  
   97.00000p   -2.1415    -2.1412    -2.1413    -2.1413  
   98.00000p   -2.1883    -2.1880    -2.1881    -2.1881  
   99.00000p   -2.2351    -2.2348    -2.2349    -2.2349  
  100.00000p   -2.2820    -2.2816    -2.2817    -2.2817  
  101.00000p   -2.2859    -2.2848    -2.2849    -2.2849  
  102.00000p   -2.2899    -2.2879    -2.2880    -2.2880  
  103.00000p   -2.2938    -2.2910    -2.2911    -2.2912  
  104.00000p   -2.2978    -2.2942    -2.2943    -2.2943  
  105.00000p   -2.3018    -2.2973    -2.2974    -2.2975  
  106.00000p   -2.3057    -2.3004    -2.3005    -2.3006  
  107.00000p   -2.3097    -2.3036    -2.3036    -2.3038  
  108.00000p   -2.3137    -2.3067    -2.3068    -2.3070  
  109.00000p   -2.3176    -2.3099    -2.3099    -2.3101  
  110.00000p   -2.3216    -2.3130    -2.3130    -2.3133  
  111.00000p   -2.3255    -2.3161    -2.3162    -2.3164  
  112.00000p   -2.3295    -2.3193    -2.3193    -2.3196  
  113.00000p   -2.3335    -2.3224    -2.3224    -2.3227  
  114.00000p   -2.3374    -2.3255    -2.3256    -2.3259  
  115.00000p   -2.3414    -2.3287    -2.3287    -2.3290  
  116.00000p   -2.3454    -2.3318    -2.3318    -2.3322  
  117.00000p   -2.3493    -2.3349    -2.3350    -2.3353  
  118.00000p   -2.3533    -2.3381    -2.3381    -2.3385  
  119.00000p   -2.3572    -2.3412    -2.3412    -2.3416  
  120.00000p   -2.3612    -2.3443    -2.3444    -2.3448  
  121.00000p   -2.3652    -2.3475    -2.3475    -2.3480  
  122.00000p   -2.3691    -2.3505    -2.3505    -2.3510  
  123.00000p   -2.3726    -2.3530    -2.3530    -2.3535  
  124.00000p   -2.3761    -2.3554    -2.3554    -2.3560  
  125.00000p   -2.3797    -2.3579    -2.3579    -2.3585  
  126.00000p   -2.3832    -2.3604    -2.3604    -2.3609  
  127.00000p   -2.3868    -2.3628    -2.3628    -2.3634  
  128.00000p   -2.3903    -2.3653    -2.3653    -2.3659  
  129.00000p   -2.3938    -2.3678    -2.3677    -2.3684  
  130.00000p   -2.3974    -2.3702    -2.3702    -2.3709  
  131.00000p   -2.4009    -2.3727    -2.3727    -2.3734  
  132.00000p   -2.4045    -2.3752    -2.3751    -2.3759  
  133.00000p   -2.4094    -2.3772    -2.3770    -2.3778  
  134.00000p   -2.4147    -2.3792    -2.3787    -2.3795  
  135.00000p   -2.4200    -2.3811    -2.3804    -2.3813  
  136.00000p   -2.4253    -2.3831    -2.3821    -2.3830  
  137.00000p   -2.4305    -2.3850    -2.3838    -2.3848  
  138.00000p   -2.4358    -2.3869    -2.3855    -2.3866  
  139.00000p   -2.4411    -2.3889    -2.3871    -2.3883  
  140.00000p   -2.4464    -2.3908    -2.3888    -2.3901  
  141.00000p   -2.4517    -2.3928    -2.3905    -2.3918  
  142.00000p   -2.4570    -2.3947    -2.3922    -2.3936  
  143.00000p   -2.4623    -2.3967    -2.3939    -2.3953  
  144.00000p   -2.4676    -2.3986    -2.3956    -2.3971  
  145.00000p   -2.4729    -2.4006    -2.3973    -2.3988  
  146.00000p   -2.4782    -2.4025    -2.3990    -2.4006  
  147.00000p   -2.4835    -2.4045    -2.4007    -2.4023  
  148.00000p   -2.4888    -2.4064    -2.4024    -2.4041  
  149.00000p   -2.4941    -2.4084    -2.4041    -2.4058  
  150.00000p   -2.4994    -2.4103    -2.4058    -2.4076  
  151.00000p   -2.5046    -2.4123    -2.4075    -2.4094  
  152.00000p   -2.5099    -2.4142    -2.4092    -2.4111  
  153.00000p   -2.5152    -2.4161    -2.4109    -2.4129  
  154.00000p   -2.5205    -2.4181    -2.4126    -2.4146  
  155.00000p   -2.5258    -2.4200    -2.4143    -2.4164  
  156.00000p   -2.5311    -2.4220    -2.4160    -2.4181  
  157.00000p   -2.5364    -2.4239    -2.4176    -2.4199  
  158.00000p   -2.5417    -2.4259    -2.4193    -2.4216  
  159.00000p   -2.5470    -2.4278    -2.4210    -2.4234  
  160.00000p   -2.5523    -2.4298    -2.4227    -2.4251  
  161.00000p   -2.5576    -2.4317    -2.4244    -2.4269  
  162.00000p   -2.5629    -2.4337    -2.4261    -2.4286  
  163.00000p   -2.5682    -2.4356    -2.4278    -2.4304  
  164.00000p   -2.5734    -2.4376    -2.4295    -2.4322  
  165.00000p   -2.5787    -2.4395    -2.4312    -2.4339  
  166.00000p   -2.5890    -2.4425    -2.4326    -2.4350  
  167.00000p   -2.6027    -2.4463    -2.4337    -2.4357  
  168.00000p   -2.6164    -2.4500    -2.4348    -2.4364  
  169.00000p   -2.6302    -2.4538    -2.4359    -2.4371  
  170.00000p   -2.6439    -2.4576    -2.4371    -2.4377  
  171.00000p   -2.6577    -2.4613    -2.4382    -2.4384  
  172.00000p   -2.6714    -2.4651    -2.4393    -2.4391  
  173.00000p   -2.6851    -2.4688    -2.4404    -2.4398  
  174.00000p   -2.6989    -2.4726    -2.4416    -2.4405  
  175.00000p   -2.7126    -2.4764    -2.4427    -2.4411  
  176.00000p   -2.7264    -2.4801    -2.4438    -2.4418  
  177.00000p   -2.7401    -2.4839    -2.4450    -2.4425  
  178.00000p   -2.7538    -2.4876    -2.4461    -2.4432  
  179.00000p   -2.7676    -2.4914    -2.4472    -2.4439  
  180.00000p   -2.7813    -2.4952    -2.4483    -2.4445  
  181.00000p   -2.7951    -2.4989    -2.4495    -2.4452  
  182.00000p   -2.8088    -2.5027    -2.4506    -2.4459  
  183.00000p   -2.8225    -2.5064    -2.4517    -2.4466  
  184.00000p   -2.8363    -2.5102    -2.4528    -2.4472  
  185.00000p   -2.8500    -2.5140    -2.4540    -2.4479  
  186.00000p   -2.8637    -2.5177    -2.4551    -2.4486  
  187.00000p   -2.8775    -2.5215    -2.4562    -2.4493  
  188.00000p   -2.8912    -2.5252    -2.4573    -2.4500  
  189.00000p   -2.9050    -2.5290    -2.4585    -2.4506  
  190.00000p   -2.9187    -2.5328    -2.4596    -2.4513  
  191.00000p   -2.9324    -2.5365    -2.4607    -2.4520  
  192.00000p   -2.9462    -2.5403    -2.4618    -2.4527  
  193.00000p   -2.9599    -2.5440    -2.4630    -2.4533  
  194.00000p   -2.9737    -2.5478    -2.4641    -2.4540  
  195.00000p   -2.9874    -2.5516    -2.4652    -2.4547  
  196.00000p   -3.0011    -2.5553    -2.4663    -2.4554  
  197.00000p   -3.0149    -2.5591    -2.4675    -2.4561  
  198.00000p   -3.0286    -2.5628    -2.4686    -2.4567  
  199.00000p   -3.0424    -2.5666    -2.4697    -2.4574  
  200.00000p   -3.0561    -2.5704    -2.4709    -2.4581  
  201.00000p   -3.0698    -2.5741    -2.4720    -2.4588  
  202.00000p   -3.0836    -2.5779    -2.4731    -2.4595  
  203.00000p   -3.0973    -2.5816    -2.4742    -2.4601  
  204.00000p   -3.1111    -2.5854    -2.4754    -2.4608  
  205.00000p   -3.1248    -2.5892    -2.4765    -2.4615  
  206.00000p   -3.1385    -2.5929    -2.4776    -2.4622  
  207.00000p   -3.1523    -2.5967    -2.4787    -2.4628  
  208.00000p   -3.1660    -2.6004    -2.4799    -2.4635  
  209.00000p   -3.1798    -2.6042    -2.4810    -2.4642  
  210.00000p   -3.1936    -2.6080    -2.4821    -2.4649  
  211.00000p   -3.2186    -2.6192    -2.4847    -2.4643  
  212.00000p   -3.2436    -2.6304    -2.4873    -2.4638  
  213.00000p   -3.2686    -2.6416    -2.4900    -2.4632  
  214.00000p   -3.2936    -2.6528    -2.4926    -2.4627  
  215.00000p   -3.3187    -2.6640    -2.4952    -2.4621  
  216.00000p   -3.3437    -2.6752    -2.4978    -2.4616  
  217.00000p   -3.3687    -2.6864    -2.5004    -2.4610  
  218.00000p   -3.3937    -2.6976    -2.5030    -2.4604  
  219.00000p   -3.4188    -2.7088    -2.5056    -2.4599  
  220.00000p   -3.4438    -2.7200    -2.5082    -2.4593  
  221.00000p   -3.4688    -2.7312    -2.5109    -2.4588  
  222.00000p   -3.4938    -2.7424    -2.5135    -2.4582  
  223.00000p   -3.5189    -2.7536    -2.5161    -2.4577  
  224.00000p   -3.5439    -2.7648    -2.5187    -2.4571  
  225.00000p   -3.5689    -2.7759    -2.5213    -2.4566  
  226.00000p   -3.5939    -2.7871    -2.5239    -2.4560  
  227.00000p   -3.6189    -2.7983    -2.5265    -2.4555  
  228.00000p   -3.6440    -2.8095    -2.5291    -2.4549  
  229.00000p   -3.6690    -2.8207    -2.5318    -2.4544  
  230.00000p   -3.6940    -2.8319    -2.5344    -2.4538  
  231.00000p   -3.7190    -2.8431    -2.5370    -2.4533  
  232.00000p   -3.7441    -2.8543    -2.5396    -2.4527  
  233.00000p   -3.7691    -2.8655    -2.5422    -2.4521  
  234.00000p   -3.7941    -2.8767    -2.5448    -2.4516  
  235.00000p   -3.8191    -2.8879    -2.5474    -2.4510  
  236.00000p   -3.8442    -2.8991    -2.5500    -2.4505  
  237.00000p   -3.8692    -2.9103    -2.5527    -2.4499  
  238.00000p   -3.8942    -2.9215    -2.5553    -2.4494  
  239.00000p   -3.9192    -2.9327    -2.5579    -2.4488  
  240.00000p   -3.9442    -2.9439    -2.5605    -2.4483  
  241.00000p   -3.9693    -2.9551    -2.5631    -2.4477  
  242.00000p   -3.9943    -2.9663    -2.5657    -2.4472  
  243.00000p   -4.0193    -2.9775    -2.5683    -2.4466  
  244.00000p   -4.0443    -2.9887    -2.5709    -2.4461  
  245.00000p   -4.0694    -2.9999    -2.5736    -2.4455  
  246.00000p   -4.0944    -3.0111    -2.5762    -2.4450  
  247.00000p   -4.1194    -3.0223    -2.5788    -2.4444  
  248.00000p   -4.1444    -3.0335    -2.5814    -2.4439  
  249.00000p   -4.1695    -3.0447    -2.5840    -2.4433  
  250.00000p   -4.1945    -3.0559    -2.5866    -2.4427  
  251.00000p   -4.2195    -3.0671    -2.5892    -2.4422  
  252.00000p   -4.2445    -3.0783    -2.5918    -2.4416  
  253.00000p   -4.2678    -3.0923    -2.5967    -2.4420  
  254.00000p   -4.2875    -3.1120    -2.6059    -2.4442  
  255.00000p   -4.3073    -3.1316    -2.6152    -2.4463  
  256.00000p   -4.3271    -3.1512    -2.6244    -2.4485  
  257.00000p   -4.3468    -3.1709    -2.6336    -2.4506  
  258.00000p   -4.3666    -3.1905    -2.6428    -2.4528  
  259.00000p   -4.3864    -3.2101    -2.6520    -2.4549  
  260.00000p   -4.4061    -3.2298    -2.6613    -2.4571  
  261.00000p   -4.4259    -3.2494    -2.6705    -2.4592  
  262.00000p   -4.4457    -3.2690    -2.6797    -2.4614  
  263.00000p   -4.4654    -3.2886    -2.6889    -2.4635  
  264.00000p   -4.4852    -3.3083    -2.6981    -2.4657  
  265.00000p   -4.5050    -3.3279    -2.7074    -2.4678  
  266.00000p   -4.5248    -3.3475    -2.7166    -2.4700  
  267.00000p   -4.5445    -3.3672    -2.7258    -2.4721  
  268.00000p   -4.5643    -3.3868    -2.7350    -2.4743  
  269.00000p   -4.5841    -3.4064    -2.7442    -2.4764  
  270.00000p   -4.6038    -3.4261    -2.7535    -2.4786  
  271.00000p   -4.6236    -3.4457    -2.7627    -2.4807  
  272.00000p   -4.6434    -3.4653    -2.7719    -2.4829  
  273.00000p   -4.6631    -3.4850    -2.7811    -2.4850  
  274.00000p   -4.6829    -3.5046    -2.7903    -2.4872  
  275.00000p   -4.7027    -3.5242    -2.7996    -2.4893  
  276.00000p   -4.7225    -3.5438    -2.8088    -2.4915  
  277.00000p   -4.7422    -3.5635    -2.8180    -2.4936  
  278.00000p   -4.7620    -3.5831    -2.8272    -2.4958  
  279.00000p   -4.7818    -3.6027    -2.8365    -2.4979  
  280.00000p   -4.8015    -3.6224    -2.8457    -2.5001  
  281.00000p   -4.8213    -3.6420    -2.8549    -2.5022  
  282.00000p   -4.8411    -3.6616    -2.8641    -2.5044  
  283.00000p   -4.8608    -3.6813    -2.8733    -2.5065  
  284.00000p   -4.8806    -3.7009    -2.8826    -2.5087  
  285.00000p   -4.9004    -3.7205    -2.8918    -2.5108  
  286.00000p   -4.9201    -3.7402    -2.9010    -2.5130  
  287.00000p   -4.9399    -3.7598    -2.9102    -2.5151  
  288.00000p   -4.9597    -3.7794    -2.9194    -2.5173  
  289.00000p   -4.9795    -3.7990    -2.9287    -2.5194  
  290.00000p   -4.9992    -3.8187    -2.9379    -2.5216  
  291.00000p   -5.0190    -3.8383    -2.9471    -2.5237  
  292.00000p   -5.0388    -3.8579    -2.9563    -2.5259  
  293.00000p   -5.0585    -3.8776    -2.9655    -2.5280  
  294.00000p   -5.0783    -3.8972    -2.9748    -2.5302  
  295.00000p   -5.0981    -3.9168    -2.9840    -2.5323  
  296.00000p   -5.1178    -3.9365    -2.9932    -2.5345  
  297.00000p   -5.1376    -3.9561    -3.0024    -2.5366  
  298.00000p   -5.1574    -3.9757    -3.0117    -2.5388  
  299.00000p   -5.1771    -3.9954    -3.0209    -2.5409  
  300.00000p   -5.1969    -4.0150    -3.0301    -2.5431  
  301.00000p   -5.2167    -4.0346    -3.0393    -2.5452  
  302.00000p   -5.2365    -4.0542    -3.0485    -2.5474  
  303.00000p   -5.2470    -4.0710    -3.0598    -2.5533  
  304.00000p   -5.2398    -4.0822    -3.0749    -2.5664  
  305.00000p   -5.2326    -4.0934    -3.0900    -2.5796  
  306.00000p   -5.2254    -4.1046    -3.1052    -2.5927  
  307.00000p   -5.2182    -4.1158    -3.1203    -2.6058  
  308.00000p   -5.2109    -4.1270    -3.1354    -2.6190  
  309.00000p   -5.2037    -4.1382    -3.1505    -2.6321  
  310.00000p   -5.1965    -4.1494    -3.1657    -2.6453  
  311.00000p   -5.1893    -4.1606    -3.1808    -2.6584  
  312.00000p   -5.1821    -4.1719    -3.1959    -2.6715  
  313.00000p   -5.1749    -4.1831    -3.2111    -2.6847  
  314.00000p   -5.1677    -4.1943    -3.2262    -2.6978  
  315.00000p   -5.1605    -4.2055    -3.2413    -2.7109  
  316.00000p   -5.1532    -4.2167    -3.2565    -2.7241  
  317.00000p   -5.1460    -4.2279    -3.2716    -2.7372  
  318.00000p   -5.1388    -4.2391    -3.2867    -2.7504  
  319.00000p   -5.1316    -4.2503    -3.3018    -2.7635  
  320.00000p   -5.1244    -4.2615    -3.3170    -2.7766  
  321.00000p   -5.1172    -4.2727    -3.3321    -2.7898  
  322.00000p   -5.1100    -4.2839    -3.3472    -2.8029  
  323.00000p   -5.1028    -4.2951    -3.3624    -2.8161  
  324.00000p   -5.0956    -4.3063    -3.3775    -2.8292  
  325.00000p   -5.0883    -4.3175    -3.3926    -2.8423  
  326.00000p   -5.0811    -4.3287    -3.4077    -2.8555  
  327.00000p   -5.0739    -4.3399    -3.4229    -2.8686  
  328.00000p   -5.0667    -4.3512    -3.4380    -2.8817  
  329.00000p   -5.0595    -4.3624    -3.4531    -2.8949  
  330.00000p   -5.0523    -4.3736    -3.4683    -2.9080  
  331.00000p   -5.0451    -4.3848    -3.4834    -2.9212  
  332.00000p   -5.0379    -4.3960    -3.4985    -2.9343  
  333.00000p   -5.0306    -4.4072    -3.5137    -2.9474  
  334.00000p   -5.0234    -4.4184    -3.5288    -2.9606  
  335.00000p   -5.0162    -4.4296    -3.5439    -2.9737  
  336.00000p   -5.0090    -4.4408    -3.5590    -2.9868  
  337.00000p   -5.0018    -4.4520    -3.5742    -3.0000  
  338.00000p   -4.9946    -4.4632    -3.5893    -3.0131  
  339.00000p   -4.9874    -4.4744    -3.6044    -3.0263  
  340.00000p   -4.9802    -4.4856    -3.6196    -3.0394  
  341.00000p   -4.9730    -4.4968    -3.6347    -3.0525  
  342.00000p   -4.9657    -4.5080    -3.6498    -3.0657  
  343.00000p   -4.9585    -4.5193    -3.6649    -3.0788  
  344.00000p   -4.9513    -4.5305    -3.6801    -3.0919  
  345.00000p   -4.9441    -4.5417    -3.6952    -3.1051  
  346.00000p   -4.9369    -4.5529    -3.7103    -3.1182  
  347.00000p   -4.9297    -4.5641    -3.7255    -3.1314  
  348.00000p   -4.9225    -4.5753    -3.7406    -3.1445  
  349.00000p   -4.9153    -4.5865    -3.7557    -3.1576  
  350.00000p   -4.9080    -4.5977    -3.7709    -3.1708  
  351.00000p   -4.9008    -4.6089    -3.7860    -3.1839  
  352.00000p   -4.8936    -4.6201    -3.8011    -3.1971  
  353.00000p   -4.8818    -4.6243    -3.8146    -3.2138  
  354.00000p   -4.8610    -4.6150    -3.8249    -3.2375  
  355.00000p   -4.8403    -4.6057    -3.8352    -3.2612  
  356.00000p   -4.8196    -4.5963    -3.8456    -3.2849  
  357.00000p   -4.7988    -4.5870    -3.8559    -3.3086  
  358.00000p   -4.7781    -4.5777    -3.8662    -3.3323  
  359.00000p   -4.7574    -4.5684    -3.8765    -3.3560  
  360.00000p   -4.7366    -4.5590    -3.8868    -3.3797  
  361.00000p   -4.7159    -4.5497    -3.8972    -3.4034  
  362.00000p   -4.6951    -4.5404    -3.9075    -3.4271  
  363.00000p   -4.6744    -4.5311    -3.9178    -3.4508  
  364.00000p   -4.6537    -4.5217    -3.9281    -3.4745  
  365.00000p   -4.6329    -4.5124    -3.9384    -3.4982  
  366.00000p   -4.6122    -4.5031    -3.9488    -3.5219  
  367.00000p   -4.5915    -4.4938    -3.9591    -3.5456  
  368.00000p   -4.5707    -4.4844    -3.9694    -3.5693  
  369.00000p   -4.5500    -4.4751    -3.9797    -3.5930  
  370.00000p   -4.5293    -4.4658    -3.9900    -3.6167  
  371.00000p   -4.5085    -4.4565    -4.0004    -3.6404  
  372.00000p   -4.4878    -4.4471    -4.0107    -3.6641  
  373.00000p   -4.4670    -4.4378    -4.0210    -3.6878  
  374.00000p   -4.4463    -4.4285    -4.0313    -3.7115  
  375.00000p   -4.4256    -4.4192    -4.0416    -3.7352  
  376.00000p   -4.4048    -4.4098    -4.0520    -3.7589  
  377.00000p   -4.3841    -4.4005    -4.0623    -3.7826  
  378.00000p   -4.3634    -4.3912    -4.0726    -3.8063  
  379.00000p   -4.3426    -4.3819    -4.0829    -3.8300  
  380.00000p   -4.3219    -4.3725    -4.0932    -3.8537  
  381.00000p   -4.3011    -4.3632    -4.1036    -3.8774  
  382.00000p   -4.2804    -4.3539    -4.1139    -3.9011  
  383.00000p   -4.2597    -4.3446    -4.1242    -3.9248  
  384.00000p   -4.2389    -4.3352    -4.1345    -3.9485  
  385.00000p   -4.2182    -4.3259    -4.1448    -3.9722  
  386.00000p   -4.1975    -4.3166    -4.1552    -3.9959  
  387.00000p   -4.1767    -4.3073    -4.1655    -4.0196  
  388.00000p   -4.1560    -4.2979    -4.1758    -4.0433  
  389.00000p   -4.1352    -4.2886    -4.1861    -4.0670  
  390.00000p   -4.1145    -4.2793    -4.1964    -4.0907  
  391.00000p   -4.0938    -4.2700    -4.2068    -4.1144  
  392.00000p   -4.0730    -4.2606    -4.2171    -4.1381  
  393.00000p   -4.0523    -4.2513    -4.2274    -4.1618  
  394.00000p   -4.0316    -4.2420    -4.2377    -4.1855  
  395.00000p   -4.0108    -4.2327    -4.2480    -4.2092  
  396.00000p   -3.9901    -4.2233    -4.2584    -4.2329  
  397.00000p   -3.9693    -4.2140    -4.2687    -4.2566  
  398.00000p   -3.9486    -4.2047    -4.2790    -4.2803  
  399.00000p   -3.9279    -4.1954    -4.2893    -4.3040  
  400.00000p   -3.9071    -4.1860    -4.2996    -4.3277  
  401.00000p   -3.8623    -4.1362    -4.2586    -4.3005  
  402.00000p   -3.8174    -4.0863    -4.2175    -4.2733  
  403.00000p   -3.7725    -4.0364    -4.1764    -4.2461  
  404.00000p   -3.7277    -3.9865    -4.1353    -4.2189  
  405.00000p   -3.6828    -3.9367    -4.0943    -4.1916  
  406.00000p   -3.6380    -3.8868    -4.0532    -4.1644  
  407.00000p   -3.5931    -3.8369    -4.0121    -4.1372  
  408.00000p   -3.5482    -3.7870    -3.9710    -4.1100  
  409.00000p   -3.5034    -3.7372    -3.9300    -4.0828  
  410.00000p   -3.4585    -3.6873    -3.8889    -4.0556  
  411.00000p   -3.4137    -3.6374    -3.8478    -4.0284  
  412.00000p   -3.3688    -3.5875    -3.8068    -4.0012  
  413.00000p   -3.3239    -3.5377    -3.7657    -3.9740  
  414.00000p   -3.2791    -3.4878    -3.7246    -3.9468  
  415.00000p   -3.2342    -3.4379    -3.6835    -3.9195  
  416.00000p   -3.1894    -3.3880    -3.6425    -3.8923  
  417.00000p   -3.1445    -3.3382    -3.6014    -3.8651  
  418.00000p   -3.0996    -3.2883    -3.5603    -3.8379  
  419.00000p   -3.0548    -3.2384    -3.5192    -3.8107  
  420.00000p   -3.0099    -3.1885    -3.4782    -3.7835  
  421.00000p   -2.9651    -3.1386    -3.4371    -3.7563  
  422.00000p   -2.9202    -3.0888    -3.3960    -3.7291  
  423.00000p   -2.8753    -3.0389    -3.3549    -3.7019  
  424.00000p   -2.8305    -2.9890    -3.3139    -3.6747  
  425.00000p   -2.7856    -2.9391    -3.2728    -3.6474  
  426.00000p   -2.7439    -2.8924    -3.2313    -3.6171  
  427.00000p   -2.7023    -2.8458    -3.1898    -3.5868  
  428.00000p   -2.6606    -2.7991    -3.1483    -3.5565  
  429.00000p   -2.6189    -2.7524    -3.1068    -3.5261  
  430.00000p   -2.5772    -2.7057    -3.0654    -3.4958  
  431.00000p   -2.5356    -2.6590    -3.0239    -3.4655  
  432.00000p   -2.4939    -2.6123    -2.9824    -3.4351  
  433.00000p   -2.4522    -2.5656    -2.9409    -3.4048  
  434.00000p   -2.4106    -2.5189    -2.8994    -3.3745  
  435.00000p   -2.3689    -2.4722    -2.8579    -3.3442  
  436.00000p   -2.3272    -2.4255    -2.8164    -3.3138  
  437.00000p   -2.2855    -2.3788    -2.7749    -3.2835  
  438.00000p   -2.2476    -2.3367    -2.7341    -3.2500  
  439.00000p   -2.2122    -2.2979    -2.6937    -3.2143  
  440.00000p   -2.1769    -2.2592    -2.6533    -3.1786  
  441.00000p   -2.1416    -2.2204    -2.6129    -3.1429  
  442.00000p   -2.1063    -2.1816    -2.5725    -3.1072  
  443.00000p   -2.0709    -2.1428    -2.5321    -3.0715  
  444.00000p   -2.0356    -2.1040    -2.4917    -3.0358  
  445.00000p   -2.0003    -2.0653    -2.4514    -3.0001  
  446.00000p   -1.9650    -2.0265    -2.4110    -2.9644  
  447.00000p   -1.9296    -1.9877    -2.3706    -2.9287  
  448.00000p   -1.8943    -1.9489    -2.3302    -2.8930  
  449.00000p   -1.8590    -1.9102    -2.2898    -2.8573  
  450.00000p   -1.8237    -1.8714    -2.2494    -2.8216  
  451.00000p   -1.8387    -1.8892    -2.2605    -2.8263  
  452.00000p   -1.8538    -1.9071    -2.2717    -2.8309  
  453.00000p   -1.8688    -1.9250    -2.2828    -2.8355  
  454.00000p   -1.8839    -1.9428    -2.2939    -2.8402  
  455.00000p   -1.8990    -1.9607    -2.3050    -2.8448  
  456.00000p   -1.9140    -1.9785    -2.3162    -2.8494  
  457.00000p   -1.9291    -1.9964    -2.3273    -2.8541  
  458.00000p   -1.9441    -2.0143    -2.3384    -2.8587  
  459.00000p   -1.9592    -2.0321    -2.3495    -2.8633  
  460.00000p   -1.9743    -2.0500    -2.3607    -2.8680  
  461.00000p   -1.9893    -2.0678    -2.3718    -2.8726  
  462.00000p   -2.0044    -2.0857    -2.3829    -2.8772  
  463.00000p   -2.0194    -2.1036    -2.3940    -2.8819  
  464.00000p   -2.0345    -2.1214    -2.4052    -2.8865  
  465.00000p   -2.0495    -2.1393    -2.4163    -2.8911  
  466.00000p   -2.0646    -2.1571    -2.4274    -2.8958  
  467.00000p   -2.0797    -2.1750    -2.4386    -2.9004  
  468.00000p   -2.0947    -2.1929    -2.4497    -2.9050  
  469.00000p   -2.1098    -2.2107    -2.4608    -2.9097  
  470.00000p   -2.1248    -2.2286    -2.4719    -2.9143  
  471.00000p   -2.1410    -2.2483    -2.4848    -2.9196  
  472.00000p   -2.1573    -2.2683    -2.4980    -2.9250  
  473.00000p   -2.1737    -2.2884    -2.5112    -2.9303  
  474.00000p   -2.1900    -2.3084    -2.5244    -2.9357  
  475.00000p   -2.2064    -2.3284    -2.5376    -2.9410  
  476.00000p   -2.2227    -2.3485    -2.5508    -2.9464  
  477.00000p   -2.2390    -2.3685    -2.5640    -2.9518  
  478.00000p   -2.2554    -2.3885    -2.5772    -2.9571  
  479.00000p   -2.2717    -2.4085    -2.5904    -2.9625  
  480.00000p   -2.2885    -2.4303    -2.6066    -2.9702  
  481.00000p   -2.3054    -2.4530    -2.6244    -2.9791  
  482.00000p   -2.3224    -2.4757    -2.6422    -2.9879  
  483.00000p   -2.3393    -2.4983    -2.6599    -2.9968  
  484.00000p   -2.3563    -2.5210    -2.6777    -3.0057  
  485.00000p   -2.3732    -2.5437    -2.6954    -3.0145  
  486.00000p   -2.3902    -2.5663    -2.7132    -3.0234  
  487.00000p   -2.4071    -2.5890    -2.7310    -3.0322  
  488.00000p   -2.4241    -2.6117    -2.7487    -3.0411  
  489.00000p   -2.4410    -2.6343    -2.7665    -3.0500  
  490.00000p   -2.4580    -2.6570    -2.7843    -3.0588  
  491.00000p   -2.4749    -2.6797    -2.8020    -3.0677  
  492.00000p   -2.4919    -2.7023    -2.8198    -3.0766  
  493.00000p   -2.5089    -2.7250    -2.8376    -3.0854  
  494.00000p   -2.5258    -2.7477    -2.8553    -3.0943  
  495.00000p   -2.5428    -2.7703    -2.8731    -3.1032  
  496.00000p   -2.5597    -2.7930    -2.8909    -3.1120  
  497.00000p   -2.5767    -2.8157    -2.9086    -3.1209  
  498.00000p   -2.5936    -2.8383    -2.9264    -3.1297  
  499.00000p   -2.6106    -2.8610    -2.9442    -3.1386  
  500.00000p   -2.6275    -2.8837    -2.9619    -3.1475  
  501.00000p   -2.6445    -2.9063    -2.9797    -3.1563  
  502.00000p   -2.6614    -2.9290    -2.9975    -3.1652  
  503.00000p   -2.6784    -2.9517    -3.0152    -3.1741  
  504.00000p   -2.6954    -2.9744    -3.0330    -3.1829  
  505.00000p   -2.7123    -2.9970    -3.0507    -3.1918  
  506.00000p   -2.7293    -3.0197    -3.0685    -3.2007  
  507.00000p   -2.7462    -3.0424    -3.0863    -3.2095  
  508.00000p   -2.7632    -3.0650    -3.1040    -3.2184  
  509.00000p   -2.7787    -3.0871    -3.1226    -3.2293  
  510.00000p   -2.7897    -3.1072    -3.1437    -3.2466  
  511.00000p   -2.8006    -3.1272    -3.1648    -3.2640  
  512.00000p   -2.8116    -3.1473    -3.1858    -3.2813  
  513.00000p   -2.8226    -3.1674    -3.2069    -3.2987  
  514.00000p   -2.8336    -3.1875    -3.2280    -3.3160  
  515.00000p   -2.8445    -3.2076    -3.2491    -3.3334  
  516.00000p   -2.8555    -3.2277    -3.2702    -3.3508  
  517.00000p   -2.8665    -3.2477    -3.2913    -3.3681  
  518.00000p   -2.8774    -3.2678    -3.3124    -3.3855  
  519.00000p   -2.8884    -3.2879    -3.3334    -3.4028  
  520.00000p   -2.8994    -3.3080    -3.3545    -3.4202  
  521.00000p   -2.9103    -3.3281    -3.3756    -3.4375  
  522.00000p   -2.9213    -3.3482    -3.3967    -3.4549  
  523.00000p   -2.9323    -3.3683    -3.4178    -3.4723  
  524.00000p   -2.9432    -3.3883    -3.4389    -3.4896  
  525.00000p   -2.9542    -3.4084    -3.4600    -3.5070  
  526.00000p   -2.9652    -3.4285    -3.4810    -3.5243  
  527.00000p   -2.9761    -3.4486    -3.5021    -3.5417  
  528.00000p   -2.9871    -3.4687    -3.5232    -3.5590  
  529.00000p   -2.9981    -3.4888    -3.5443    -3.5764  
  530.00000p   -3.0091    -3.5088    -3.5654    -3.5938  
  531.00000p   -3.0200    -3.5289    -3.5865    -3.6111  
  532.00000p   -3.0310    -3.5490    -3.6076    -3.6285  
  533.00000p   -3.0420    -3.5691    -3.6286    -3.6458  
  534.00000p   -3.0529    -3.5892    -3.6497    -3.6632  
  535.00000p   -3.0639    -3.6093    -3.6708    -3.6805  
  536.00000p   -3.0749    -3.6293    -3.6919    -3.6979  
  537.00000p   -3.0858    -3.6494    -3.7130    -3.7153  
  538.00000p   -3.0968    -3.6695    -3.7341    -3.7326  
  539.00000p   -3.1078    -3.6896    -3.7552    -3.7500  
  540.00000p   -3.1187    -3.7097    -3.7762    -3.7673  
  541.00000p   -3.1297    -3.7298    -3.7973    -3.7847  
  542.00000p   -3.1407    -3.7498    -3.8184    -3.8021  
  543.00000p   -3.1516    -3.7699    -3.8395    -3.8194  
  544.00000p   -3.1626    -3.7900    -3.8606    -3.8368  
  545.00000p   -3.1736    -3.8101    -3.8817    -3.8541  
  546.00000p   -3.1846    -3.8302    -3.9028    -3.8715  
  547.00000p   -3.1955    -3.8503    -3.9238    -3.8888  
  548.00000p   -3.2065    -3.8703    -3.9449    -3.9062  
  549.00000p   -3.2175    -3.8904    -3.9660    -3.9236  
  550.00000p   -3.2284    -3.9105    -3.9871    -3.9409  
  551.00000p   -3.2736    -3.9684    -4.0532    -4.0106  
  552.00000p   -3.3187    -4.0262    -4.1193    -4.0802  
  553.00000p   -3.3638    -4.0841    -4.1854    -4.1499  
  554.00000p   -3.4089    -4.1419    -4.2515    -4.2196  
  555.00000p   -3.4540    -4.1998    -4.3176    -4.2892  
  556.00000p   -3.4992    -4.2577    -4.3837    -4.3589  
  557.00000p   -3.5443    -4.3155    -4.4498    -4.4285  
  558.00000p   -3.5894    -4.3734    -4.5159    -4.4982  
  559.00000p   -3.6345    -4.4312    -4.5820    -4.5679  
  560.00000p   -3.6797    -4.4891    -4.6481    -4.6375  
  561.00000p   -3.7248    -4.5469    -4.7142    -4.7072  
  562.00000p   -3.7699    -4.6048    -4.7803    -4.7769  
  563.00000p   -3.8150    -4.6627    -4.8464    -4.8465  
  564.00000p   -3.8602    -4.7205    -4.9125    -4.9162  
  565.00000p   -3.9053    -4.7784    -4.9786    -4.9858  
  566.00000p   -3.9504    -4.8362    -5.0447    -5.0555  
  567.00000p   -3.9955    -4.8941    -5.1108    -5.1252  
  568.00000p   -4.0407    -4.9519    -5.1769    -5.1948  
  569.00000p   -4.0858    -5.0098    -5.2430    -5.2645  
  570.00000p   -4.1309    -5.0677    -5.3091    -5.3341  
  571.00000p   -4.1760    -5.1255    -5.3752    -5.4038  
  572.00000p   -4.2212    -5.1834    -5.4413    -5.4735  
  573.00000p   -4.2663    -5.2412    -5.5075    -5.5432  
  574.00000p   -4.3115    -5.2991    -5.5745    -5.6142  
  575.00000p   -4.3567    -5.3569    -5.6415    -5.6853  
  576.00000p   -4.4019    -5.4148    -5.7084    -5.7564  
  577.00000p   -4.4470    -5.4727    -5.7754    -5.8274  
  578.00000p   -4.4922    -5.5305    -5.8424    -5.8985  
  579.00000p   -4.5374    -5.5884    -5.9094    -5.9696  
  580.00000p   -4.5826    -5.6463    -5.9764    -6.0406  
  581.00000p   -4.6278    -5.7041    -6.0434    -6.1117  
  582.00000p   -4.6730    -5.7620    -6.1104    -6.1828  
  583.00000p   -4.7182    -5.8199    -6.1774    -6.2538  
  584.00000p   -4.7634    -5.8777    -6.2444    -6.3249  
  585.00000p   -4.8086    -5.9356    -6.3114    -6.3960  
  586.00000p   -4.8538    -5.9920    -6.3785    -6.4680  
  587.00000p   -4.8989    -6.0482    -6.4456    -6.5403  
  588.00000p   -4.9441    -6.1044    -6.5127    -6.6125  
  589.00000p   -4.9893    -6.1607    -6.5798    -6.6848  
  590.00000p   -5.0345    -6.2169    -6.6469    -6.7570  
  591.00000p   -5.0796    -6.2731    -6.7141    -6.8293  
  592.00000p   -5.1248    -6.3293    -6.7812    -6.9015  
  593.00000p   -5.1700    -6.3855    -6.8483    -6.9738  
  594.00000p   -5.2152    -6.4417    -6.9154    -7.0460  
  595.00000p   -5.2603    -6.4980    -6.9825    -7.1183  
  596.00000p   -5.3055    -6.5542    -7.0497    -7.1905  
  597.00000p   -5.3507    -6.6104    -7.1168    -7.2628  
  598.00000p   -5.3959    -6.6666    -7.1839    -7.3350  
  599.00000p   -5.4410    -6.7228    -7.2510    -7.4073  
  600.00000p   -5.4862    -6.7790    -7.3181    -7.4795  
  601.00000p   -5.5002    -6.7913    -7.3390    -7.5063  
  602.00000p   -5.5142    -6.8036    -7.3598    -7.5332  
  603.00000p   -5.5281    -6.8159    -7.3806    -7.5600  
  604.00000p   -5.5421    -6.8282    -7.4015    -7.5868  
  605.00000p   -5.5561    -6.8405    -7.4223    -7.6137  
  606.00000p   -5.5700    -6.8528    -7.4431    -7.6405  
  607.00000p   -5.5840    -6.8651    -7.4640    -7.6673  
  608.00000p   -5.5980    -6.8773    -7.4848    -7.6942  
  609.00000p   -5.6120    -6.8896    -7.5056    -7.7210  
  610.00000p   -5.6259    -6.9019    -7.5265    -7.7478  
  611.00000p   -5.6399    -6.9142    -7.5473    -7.7747  
  612.00000p   -5.6539    -6.9265    -7.5681    -7.8015  
  613.00000p   -5.6679    -6.9388    -7.5889    -7.8283  
  614.00000p   -5.6818    -6.9511    -7.6098    -7.8552  
  615.00000p   -5.6958    -6.9634    -7.6306    -7.8820  
  616.00000p   -5.7098    -6.9756    -7.6514    -7.9088  
  617.00000p   -5.7237    -6.9879    -7.6723    -7.9357  
  618.00000p   -5.7377    -7.0002    -7.6931    -7.9625  
  619.00000p   -5.7517    -7.0125    -7.7139    -7.9893  
  620.00000p   -5.7657    -7.0248    -7.7348    -8.0162  
  621.00000p   -5.7796    -7.0371    -7.7556    -8.0430  
  622.00000p   -5.7936    -7.0494    -7.7764    -8.0698  
  623.00000p   -5.8076    -7.0616    -7.7972    -8.0966  
  624.00000p   -5.8220    -7.0739    -7.8178    -8.1232  
  625.00000p   -5.8378    -7.0859    -7.8375    -8.1489  
  626.00000p   -5.8537    -7.0979    -7.8572    -8.1746  
  627.00000p   -5.8696    -7.1098    -7.8769    -8.2003  
  628.00000p   -5.8855    -7.1218    -7.8966    -8.2259  
  629.00000p   -5.9014    -7.1338    -7.9163    -8.2516  
  630.00000p   -5.9172    -7.1458    -7.9360    -8.2773  
  631.00000p   -5.9331    -7.1578    -7.9557    -8.3029  
  632.00000p   -5.9490    -7.1698    -7.9754    -8.3286  
  633.00000p   -5.9650    -7.1818    -7.9951    -8.3542  
  634.00000p   -5.9925    -7.1976    -8.0129    -8.3761  
  635.00000p   -6.0200    -7.2135    -8.0307    -8.3979  
  636.00000p   -6.0476    -7.2293    -8.0485    -8.4198  
  637.00000p   -6.0751    -7.2451    -8.0664    -8.4416  
  638.00000p   -6.1026    -7.2609    -8.0842    -8.4635  
  639.00000p   -6.1301    -7.2767    -8.1020    -8.4853  
  640.00000p   -6.1577    -7.2926    -8.1199    -8.5072  
  641.00000p   -6.1852    -7.3084    -8.1377    -8.5290  
  642.00000p   -6.2127    -7.3242    -8.1555    -8.5509  
  643.00000p   -6.2402    -7.3400    -8.1733    -8.5727  
  644.00000p   -6.2678    -7.3558    -8.1912    -8.5946  
  645.00000p   -6.2953    -7.3717    -8.2090    -8.6164  
  646.00000p   -6.3228    -7.3875    -8.2268    -8.6383  
  647.00000p   -6.3503    -7.4033    -8.2447    -8.6601  
  648.00000p   -6.3779    -7.4191    -8.2625    -8.6820  
  649.00000p   -6.4054    -7.4349    -8.2803    -8.7038  
  650.00000p   -6.4329    -7.4508    -8.2981    -8.7257  
  651.00000p   -6.4604    -7.4666    -8.3160    -8.7475  
  652.00000p   -6.4880    -7.4824    -8.3338    -8.7694  
  653.00000p   -6.5155    -7.4982    -8.3516    -8.7912  
  654.00000p   -6.5430    -7.5140    -8.3695    -8.8131  
  655.00000p   -6.5706    -7.5299    -8.3873    -8.8349  
  656.00000p   -6.5981    -7.5457    -8.4051    -8.8568  
  657.00000p   -6.6256    -7.5615    -8.4229    -8.8786  
  658.00000p   -6.6531    -7.5773    -8.4408    -8.9005  
  659.00000p   -6.6807    -7.5931    -8.4586    -8.9223  
  660.00000p   -6.7082    -7.6089    -8.4764    -8.9442  
  661.00000p   -6.7357    -7.6248    -8.4943    -8.9660  
  662.00000p   -6.7632    -7.6406    -8.5121    -8.9878  
  663.00000p   -6.8012    -7.6631    -8.5294    -9.0043  
  664.00000p   -6.8467    -7.6905    -8.5463    -9.0168  
  665.00000p   -6.8923    -7.7179    -8.5633    -9.0292  
  666.00000p   -6.9378    -7.7453    -8.5802    -9.0417  
  667.00000p   -6.9834    -7.7726    -8.5972    -9.0542  
  668.00000p   -7.0289    -7.8000    -8.6141    -9.0667  
  669.00000p   -7.0745    -7.8274    -8.6311    -9.0792  
  670.00000p   -7.1200    -7.8548    -8.6480    -9.0917  
  671.00000p   -7.1656    -7.8822    -8.6650    -9.1041  
  672.00000p   -7.2111    -7.9096    -8.6819    -9.1166  
  673.00000p   -7.2567    -7.9370    -8.6989    -9.1291  
  674.00000p   -7.3022    -7.9643    -8.7158    -9.1416  
  675.00000p   -7.3478    -7.9917    -8.7327    -9.1541  
  676.00000p   -7.3933    -8.0191    -8.7497    -9.1666  
  677.00000p   -7.4388    -8.0465    -8.7666    -9.1790  
  678.00000p   -7.4844    -8.0739    -8.7836    -9.1915  
  679.00000p   -7.5299    -8.1013    -8.8005    -9.2040  
  680.00000p   -7.5755    -8.1287    -8.8175    -9.2165  
  681.00000p   -7.6210    -8.1560    -8.8344    -9.2290  
  682.00000p   -7.6666    -8.1834    -8.8514    -9.2415  
  683.00000p   -7.7121    -8.2108    -8.8683    -9.2539  
  684.00000p   -7.7577    -8.2382    -8.8852    -9.2664  
  685.00000p   -7.8032    -8.2656    -8.9022    -9.2789  
  686.00000p   -7.8488    -8.2930    -8.9191    -9.2914  
  687.00000p   -7.8943    -8.3204    -8.9361    -9.3039  
  688.00000p   -7.9399    -8.3477    -8.9530    -9.3164  
  689.00000p   -7.9854    -8.3751    -8.9700    -9.3288  
  690.00000p   -8.0310    -8.4025    -8.9869    -9.3413  
  691.00000p   -8.0765    -8.4299    -9.0039    -9.3538  
  692.00000p   -8.1221    -8.4573    -9.0208    -9.3663  
  693.00000p   -8.1676    -8.4847    -9.0377    -9.3788  
  694.00000p   -8.2132    -8.5121    -9.0547    -9.3913  
  695.00000p   -8.2587    -8.5394    -9.0716    -9.4037  
  696.00000p   -8.3042    -8.5668    -9.0886    -9.4162  
  697.00000p   -8.3498    -8.5942    -9.1055    -9.4287  
  698.00000p   -8.3953    -8.6216    -9.1225    -9.4412  
  699.00000p   -8.4409    -8.6490    -9.1394    -9.4537  
  700.00000p   -8.4864    -8.6764    -9.1564    -9.4662  
  701.00000p   -8.5320    -8.7037    -9.1733    -9.4786  
  702.00000p   -8.5775    -8.7311    -9.1902    -9.4911  
  703.00000p   -8.6231    -8.7585    -9.2072    -9.5036  
  704.00000p   -8.6686    -8.7859    -9.2241    -9.5161  
  705.00000p   -8.7142    -8.8133    -9.2411    -9.5286  
  706.00000p   -8.7597    -8.8407    -9.2580    -9.5411  
  707.00000p   -8.8053    -8.8681    -9.2750    -9.5535  
  708.00000p   -8.8508    -8.8954    -9.2919    -9.5660  
  709.00000p   -8.8964    -8.9228    -9.3089    -9.5785  
  710.00000p   -8.9419    -8.9502    -9.3258    -9.5910  
  711.00000p   -8.9882    -8.9821    -9.3423    -9.5971  
  712.00000p   -9.0349    -9.0160    -9.3587    -9.6004  
  713.00000p   -9.0815    -9.0499    -9.3751    -9.6038  
  714.00000p   -9.1281    -9.0838    -9.3915    -9.6071  
  715.00000p   -9.1748    -9.1177    -9.4079    -9.6105  
  716.00000p   -9.2214    -9.1516    -9.4242    -9.6138  
  717.00000p   -9.2680    -9.1855    -9.4406    -9.6172  
  718.00000p   -9.3147    -9.2194    -9.4570    -9.6205  
  719.00000p   -9.3613    -9.2533    -9.4734    -9.6239  
  720.00000p   -9.4079    -9.2872    -9.4897    -9.6272  
  721.00000p   -9.4546    -9.3211    -9.5061    -9.6306  
  722.00000p   -9.5012    -9.3550    -9.5225    -9.6339  
  723.00000p   -9.5478    -9.3889    -9.5389    -9.6372  
  724.00000p   -9.5945    -9.4228    -9.5553    -9.6406  
  725.00000p   -9.6411    -9.4567    -9.5716    -9.6439  
  726.00000p   -9.6878    -9.4906    -9.5880    -9.6473  
  727.00000p   -9.7344    -9.5245    -9.6044    -9.6506  
  728.00000p   -9.7810    -9.5584    -9.6208    -9.6540  
  729.00000p   -9.8277    -9.5923    -9.6371    -9.6573  
  730.00000p   -9.8743    -9.6262    -9.6535    -9.6607  
  731.00000p   -9.9209    -9.6600    -9.6699    -9.6640  
  732.00000p   -9.9676    -9.6939    -9.6863    -9.6674  
  733.00000p  -10.0142    -9.7278    -9.7026    -9.6707  
  734.00000p  -10.0608    -9.7617    -9.7190    -9.6740  
  735.00000p  -10.1075    -9.7956    -9.7354    -9.6774  
  736.00000p  -10.1541    -9.8295    -9.7518    -9.6807  
  737.00000p  -10.2008    -9.8634    -9.7682    -9.6841  
  738.00000p  -10.2474    -9.8973    -9.7845    -9.6874  
  739.00000p  -10.2940    -9.9312    -9.8009    -9.6908  
  740.00000p  -10.3407    -9.9651    -9.8173    -9.6941  
  741.00000p  -10.3873    -9.9990    -9.8337    -9.6975  
  742.00000p  -10.4339   -10.0329    -9.8500    -9.7008  
  743.00000p  -10.4806   -10.0668    -9.8664    -9.7042  
  744.00000p  -10.5272   -10.1007    -9.8828    -9.7075  
  745.00000p  -10.5738   -10.1346    -9.8992    -9.7108  
  746.00000p  -10.6205   -10.1685    -9.9156    -9.7142  
  747.00000p  -10.6671   -10.2024    -9.9319    -9.7175  
  748.00000p  -10.7137   -10.2363    -9.9483    -9.7209  
  749.00000p  -10.7604   -10.2702    -9.9647    -9.7242  
  750.00000p  -10.8070   -10.3041    -9.9811    -9.7276  
  751.00000p  -10.8537   -10.3380    -9.9974    -9.7309  
  752.00000p  -10.9003   -10.3718   -10.0138    -9.7343  
  753.00000p  -10.9469   -10.4057   -10.0302    -9.7376  
  754.00000p  -10.9936   -10.4396   -10.0466    -9.7410  
  755.00000p  -11.0402   -10.4735   -10.0630    -9.7443  
  756.00000p  -11.0761   -10.5021   -10.0772    -9.7471  
  757.00000p  -11.0921   -10.5208   -10.0876    -9.7490  
  758.00000p  -11.1082   -10.5395   -10.0980    -9.7510  
  759.00000p  -11.1242   -10.5582   -10.1084    -9.7529  
  760.00000p  -11.1403   -10.5769   -10.1188    -9.7548  
  761.00000p  -11.1563   -10.5956   -10.1292    -9.7567  
  762.00000p  -11.1724   -10.6143   -10.1396    -9.7586  
  763.00000p  -11.1884   -10.6330   -10.1500    -9.7605  
  764.00000p  -11.2045   -10.6518   -10.1604    -9.7624  
  765.00000p  -11.2205   -10.6705   -10.1708    -9.7643  
  766.00000p  -11.2365   -10.6892   -10.1812    -9.7662  
  767.00000p  -11.2526   -10.7079   -10.1916    -9.7681  
  768.00000p  -11.2686   -10.7266   -10.2020    -9.7700  
  769.00000p  -11.2847   -10.7453   -10.2124    -9.7719  
  770.00000p  -11.3007   -10.7640   -10.2228    -9.7738  
  771.00000p  -11.3168   -10.7827   -10.2332    -9.7757  
  772.00000p  -11.3328   -10.8014   -10.2436    -9.7776  
  773.00000p  -11.3489   -10.8201   -10.2540    -9.7795  
  774.00000p  -11.3649   -10.8388   -10.2644    -9.7815  
  775.00000p  -11.3810   -10.8575   -10.2748    -9.7834  
  776.00000p  -11.3970   -10.8763   -10.2852    -9.7853  
  777.00000p  -11.4130   -10.8950   -10.2956    -9.7872  
  778.00000p  -11.4291   -10.9137   -10.3060    -9.7891  
  779.00000p  -11.4451   -10.9324   -10.3164    -9.7910  
  780.00000p  -11.4612   -10.9511   -10.3268    -9.7929  
  781.00000p  -11.4772   -10.9698   -10.3372    -9.7948  
  782.00000p  -11.4933   -10.9885   -10.3476    -9.7967  
  783.00000p  -11.5093   -11.0072   -10.3580    -9.7986  
  784.00000p  -11.5254   -11.0259   -10.3684    -9.8005  
  785.00000p  -11.5414   -11.0446   -10.3788    -9.8024  
  786.00000p  -11.5575   -11.0633   -10.3892    -9.8043  
  787.00000p  -11.5735   -11.0820   -10.3996    -9.8062  
  788.00000p  -11.5895   -11.1008   -10.4100    -9.8081  
  789.00000p  -11.6056   -11.1195   -10.4204    -9.8100  
  790.00000p  -11.6216   -11.1382   -10.4308    -9.8120  
  791.00000p  -11.6377   -11.1569   -10.4412    -9.8139  
  792.00000p  -11.6537   -11.1756   -10.4516    -9.8158  
  793.00000p  -11.6698   -11.1943   -10.4620    -9.8177  
  794.00000p  -11.6858   -11.2130   -10.4724    -9.8196  
  795.00000p  -11.7019   -11.2317   -10.4828    -9.8215  
  796.00000p  -11.7179   -11.2504   -10.4932    -9.8234  
  797.00000p  -11.7340   -11.2691   -10.5036    -9.8253  
  798.00000p  -11.7500   -11.2878   -10.5140    -9.8272  
  799.00000p  -11.7660   -11.3065   -10.5244    -9.8291  
  800.00000p  -11.7821   -11.3253   -10.5348    -9.8310  
  801.00000p  -11.7981   -11.3440   -10.5452    -9.8329  
  802.00000p  -11.8142   -11.3627   -10.5556    -9.8348  
  803.00000p  -11.8302   -11.3814   -10.5660    -9.8367  
  804.00000p  -11.8463   -11.4001   -10.5764    -9.8386  
  805.00000p  -11.8623   -11.4188   -10.5868    -9.8405  
  806.00000p  -11.8635   -11.4267   -10.5927    -9.8429  
  807.00000p  -11.8373   -11.4147   -10.5901    -9.8462  
  808.00000p  -11.8110   -11.4027   -10.5875    -9.8495  
  809.00000p  -11.7848   -11.3907   -10.5849    -9.8528  
  810.00000p  -11.7586   -11.3787   -10.5823    -9.8561  
  811.00000p  -11.7323   -11.3667   -10.5797    -9.8594  
  812.00000p  -11.7061   -11.3547   -10.5771    -9.8627  
  813.00000p  -11.6799   -11.3427   -10.5745    -9.8660  
  814.00000p  -11.6537   -11.3307   -10.5719    -9.8692  
  815.00000p  -11.6274   -11.3187   -10.5693    -9.8725  
  816.00000p  -11.6012   -11.3067   -10.5667    -9.8758  
  817.00000p  -11.5750   -11.2947   -10.5641    -9.8791  
  818.00000p  -11.5487   -11.2827   -10.5615    -9.8824  
  819.00000p  -11.5225   -11.2707   -10.5589    -9.8857  
  820.00000p  -11.4963   -11.2587   -10.5563    -9.8890  
  821.00000p  -11.4700   -11.2467   -10.5537    -9.8923  
  822.00000p  -11.4438   -11.2347   -10.5511    -9.8956  
  823.00000p  -11.4176   -11.2227   -10.5485    -9.8988  
  824.00000p  -11.3913   -11.2107   -10.5460    -9.9021  
  825.00000p  -11.3651   -11.1987   -10.5434    -9.9054  
  826.00000p  -11.3389   -11.1867   -10.5408    -9.9087  
  827.00000p  -11.3126   -11.1747   -10.5382    -9.9120  
  828.00000p  -11.2864   -11.1627   -10.5356    -9.9153  
  829.00000p  -11.2602   -11.1507   -10.5330    -9.9186  
  830.00000p  -11.2339   -11.1387   -10.5304    -9.9219  
  831.00000p  -11.2077   -11.1267   -10.5278    -9.9251  
  832.00000p  -11.1815   -11.1147   -10.5252    -9.9284  
  833.00000p  -11.1552   -11.1027   -10.5226    -9.9317  
  834.00000p  -11.1290   -11.0907   -10.5200    -9.9350  
  835.00000p  -11.1028   -11.0787   -10.5174    -9.9383  
  836.00000p  -11.0765   -11.0667   -10.5148    -9.9416  
  837.00000p  -11.0503   -11.0547   -10.5122    -9.9449  
  838.00000p  -11.0241   -11.0427   -10.5096    -9.9482  
  839.00000p  -10.9978   -11.0307   -10.5070    -9.9515  
  840.00000p  -10.9716   -11.0187   -10.5044    -9.9547  
  841.00000p  -10.9454   -11.0067   -10.5018    -9.9580  
  842.00000p  -10.9192   -10.9947   -10.4992    -9.9613  
  843.00000p  -10.8929   -10.9827   -10.4966    -9.9646  
  844.00000p  -10.8667   -10.9707   -10.4941    -9.9679  
  845.00000p  -10.8405   -10.9587   -10.4915    -9.9712  
  846.00000p  -10.8142   -10.9467   -10.4889    -9.9745  
  847.00000p  -10.7880   -10.9347   -10.4863    -9.9778  
  848.00000p  -10.7618   -10.9227   -10.4837    -9.9811  
  849.00000p  -10.7355   -10.9107   -10.4811    -9.9843  
  850.00000p  -10.7093   -10.8987   -10.4785    -9.9876  
  851.00000p  -10.6831   -10.8867   -10.4759    -9.9909  
  852.00000p  -10.6568   -10.8747   -10.4733    -9.9942  
  853.00000p  -10.6306   -10.8627   -10.4707    -9.9975  
  854.00000p  -10.6044   -10.8507   -10.4681   -10.0008  
  855.00000p  -10.5781   -10.8387   -10.4655   -10.0041  
  856.00000p  -10.5463   -10.8188   -10.4580   -10.0059  
[...]
  692.00000p   -9.2542    -9.2408    -9.2371    -9.1493  
  693.00000p   -9.2571    -9.2437    -9.2399    -9.1520  
  694.00000p   -9.2601    -9.2467    -9.2428    -9.1546  
  695.00000p   -9.2630    -9.2496    -9.2456    -9.1572  
  696.00000p   -9.2660    -9.2526    -9.2484    -9.1599  
  697.00000p   -9.2689    -9.2556    -9.2512    -9.1625  
  698.00000p   -9.2719    -9.2585    -9.2541    -9.1651  
  699.00000p   -9.2749    -9.2615    -9.2569    -9.1678  
  700.00000p   -9.2778    -9.2644    -9.2597    -9.1704  
  701.00000p   -9.2808    -9.2674    -9.2626    -9.1730  
  702.00000p   -9.2837    -9.2703    -9.2654    -9.1757  
  703.00000p   -9.2867    -9.2733    -9.2682    -9.1783  
  704.00000p   -9.2896    -9.2762    -9.2711    -9.1809  
  705.00000p   -9.2926    -9.2792    -9.2739    -9.1835  
  706.00000p   -9.2955    -9.2821    -9.2767    -9.1862  
  707.00000p   -9.2985    -9.2851    -9.2795    -9.1888  
  708.00000p   -9.3014    -9.2880    -9.2824    -9.1914  
  709.00000p   -9.3044    -9.2910    -9.2852    -9.1941  
  710.00000p   -9.3073    -9.2940    -9.2880    -9.1967  
  711.00000p   -9.3099    -9.2967    -9.2904    -9.1985  
  712.00000p   -9.3123    -9.2992    -9.2925    -9.2001  
  713.00000p   -9.3147    -9.3018    -9.2946    -9.2016  
  714.00000p   -9.3170    -9.3044    -9.2967    -9.2031  
  715.00000p   -9.3194    -9.3070    -9.2988    -9.2046  
  716.00000p   -9.3218    -9.3096    -9.3009    -9.2061  
  717.00000p   -9.3242    -9.3122    -9.3030    -9.2076  
  718.00000p   -9.3266    -9.3148    -9.3051    -9.2091  
  719.00000p   -9.3290    -9.3174    -9.3072    -9.2106  
  720.00000p   -9.3314    -9.3200    -9.3093    -9.2121  
  721.00000p   -9.3338    -9.3226    -9.3114    -9.2137  
  722.00000p   -9.3362    -9.3251    -9.3135    -9.2152  
  723.00000p   -9.3386    -9.3277    -9.3156    -9.2167  
  724.00000p   -9.3410    -9.3303    -9.3177    -9.2182  
  725.00000p   -9.3434    -9.3329    -9.3198    -9.2197  
  726.00000p   -9.3458    -9.3355    -9.3219    -9.2212  
  727.00000p   -9.3481    -9.3381    -9.3240    -9.2227  
  728.00000p   -9.3505    -9.3407    -9.3261    -9.2242  
  729.00000p   -9.3529    -9.3433    -9.3282    -9.2257  
  730.00000p   -9.3553    -9.3459    -9.3303    -9.2272  
  731.00000p   -9.3577    -9.3485    -9.3324    -9.2288  
  732.00000p   -9.3601    -9.3511    -9.3345    -9.2303  
  733.00000p   -9.3625    -9.3536    -9.3366    -9.2318  
  734.00000p   -9.3649    -9.3562    -9.3387    -9.2333  
  735.00000p   -9.3673    -9.3588    -9.3408    -9.2348  
  736.00000p   -9.3697    -9.3614    -9.3429    -9.2363  
  737.00000p   -9.3721    -9.3640    -9.3450    -9.2378  
  738.00000p   -9.3745    -9.3666    -9.3471    -9.2393  
  739.00000p   -9.3769    -9.3692    -9.3492    -9.2408  
  740.00000p   -9.3792    -9.3718    -9.3513    -9.2423  
  741.00000p   -9.3816    -9.3744    -9.3534    -9.2439  
  742.00000p   -9.3840    -9.3770    -9.3555    -9.2454  
  743.00000p   -9.3864    -9.3795    -9.3576    -9.2469  
  744.00000p   -9.3888    -9.3821    -9.3597    -9.2484  
  745.00000p   -9.3912    -9.3847    -9.3618    -9.2499  
  746.00000p   -9.3936    -9.3873    -9.3639    -9.2514  
  747.00000p   -9.3960    -9.3899    -9.3660    -9.2529  
  748.00000p   -9.3984    -9.3925    -9.3681    -9.2544  
  749.00000p   -9.4008    -9.3951    -9.3702    -9.2559  
  750.00000p   -9.4032    -9.3977    -9.3723    -9.2574  
  751.00000p   -9.4056    -9.4003    -9.3744    -9.2590  
  752.00000p   -9.4080    -9.4029    -9.3765    -9.2605  
  753.00000p   -9.4103    -9.4054    -9.3786    -9.2620  
  754.00000p   -9.4127    -9.4080    -9.3807    -9.2635  
  755.00000p   -9.4151    -9.4106    -9.3828    -9.2650  
  756.00000p   -9.4174    -9.4129    -9.3844    -9.2663  
  757.00000p   -9.4195    -9.4145    -9.3852    -9.2674  
  758.00000p   -9.4216    -9.4162    -9.3860    -9.2684  
  759.00000p   -9.4236    -9.4178    -9.3867    -9.2694  
  760.00000p   -9.4257    -9.4195    -9.3875    -9.2704  
  761.00000p   -9.4278    -9.4211    -9.3883    -9.2715  
  762.00000p   -9.4298    -9.4228    -9.3890    -9.2725  
  763.00000p   -9.4319    -9.4244    -9.3898    -9.2735  
  764.00000p   -9.4340    -9.4260    -9.3906    -9.2746  
  765.00000p   -9.4361    -9.4277    -9.3913    -9.2756  
  766.00000p   -9.4381    -9.4293    -9.3921    -9.2766  
  767.00000p   -9.4402    -9.4310    -9.3929    -9.2776  
  768.00000p   -9.4423    -9.4326    -9.3936    -9.2787  
  769.00000p   -9.4443    -9.4343    -9.3944    -9.2797  
  770.00000p   -9.4464    -9.4359    -9.3952    -9.2807  
  771.00000p   -9.4485    -9.4376    -9.3959    -9.2817  
  772.00000p   -9.4506    -9.4392    -9.3967    -9.2828  
  773.00000p   -9.4526    -9.4408    -9.3975    -9.2838  
  774.00000p   -9.4547    -9.4425    -9.3982    -9.2848  
  775.00000p   -9.4568    -9.4441    -9.3990    -9.2859  
  776.00000p   -9.4589    -9.4458    -9.3998    -9.2869  
  777.00000p   -9.4609    -9.4474    -9.4005    -9.2879  
  778.00000p   -9.4630    -9.4491    -9.4013    -9.2889  
  779.00000p   -9.4651    -9.4507    -9.4021    -9.2900  
  780.00000p   -9.4671    -9.4524    -9.4028    -9.2910  
  781.00000p   -9.4692    -9.4540    -9.4036    -9.2920  
  782.00000p   -9.4713    -9.4556    -9.4044    -9.2931  
  783.00000p   -9.4734    -9.4573    -9.4051    -9.2941  
  784.00000p   -9.4754    -9.4589    -9.4059    -9.2951  
  785.00000p   -9.4775    -9.4606    -9.4067    -9.2961  
  786.00000p   -9.4796    -9.4622    -9.4074    -9.2972  
  787.00000p   -9.4817    -9.4639    -9.4082    -9.2982  
  788.00000p   -9.4837    -9.4655    -9.4090    -9.2992  
  789.00000p   -9.4858    -9.4671    -9.4097    -9.3002  
  790.00000p   -9.4879    -9.4688    -9.4105    -9.3013  
  791.00000p   -9.4899    -9.4704    -9.4113    -9.3023  
  792.00000p   -9.4920    -9.4721    -9.4120    -9.3033  
  793.00000p   -9.4941    -9.4737    -9.4128    -9.3044  
  794.00000p   -9.4962    -9.4754    -9.4136    -9.3054  
  795.00000p   -9.4982    -9.4770    -9.4143    -9.3064  
  796.00000p   -9.5003    -9.4787    -9.4151    -9.3074  
  797.00000p   -9.5024    -9.4803    -9.4159    -9.3085  
  798.00000p   -9.5044    -9.4819    -9.4166    -9.3095  
  799.00000p   -9.5065    -9.4836    -9.4174    -9.3105  
  800.00000p   -9.5086    -9.4852    -9.4182    -9.3116  
  801.00000p   -9.5107    -9.4869    -9.4189    -9.3126  
  802.00000p   -9.5127    -9.4885    -9.4197    -9.3136  
  803.00000p   -9.5148    -9.4902    -9.4205    -9.3146  
  804.00000p   -9.5169    -9.4918    -9.4212    -9.3157  
  805.00000p   -9.5190    -9.4935    -9.4220    -9.3167  
  806.00000p   -9.5213    -9.4952    -9.4229    -9.3182  
  807.00000p   -9.5240    -9.4970    -9.4242    -9.3206  
  808.00000p   -9.5267    -9.4989    -9.4254    -9.3229  
  809.00000p   -9.5294    -9.5008    -9.4266    -9.3253  
  810.00000p   -9.5321    -9.5026    -9.4279    -9.3277  
  811.00000p   -9.5348    -9.5045    -9.4291    -9.3301  
  812.00000p   -9.5375    -9.5064    -9.4304    -9.3324  
  813.00000p   -9.5403    -9.5082    -9.4316    -9.3348  
  814.00000p   -9.5430    -9.5101    -9.4329    -9.3372  
  815.00000p   -9.5457    -9.5120    -9.4341    -9.3396  
  816.00000p   -9.5484    -9.5138    -9.4353    -9.3419  
  817.00000p   -9.5511    -9.5157    -9.4366    -9.3443  
  818.00000p   -9.5538    -9.5175    -9.4378    -9.3467  
  819.00000p   -9.5565    -9.5194    -9.4391    -9.3491  
  820.00000p   -9.5592    -9.5213    -9.4403    -9.3514  
  821.00000p   -9.5620    -9.5231    -9.4416    -9.3538  
  822.00000p   -9.5647    -9.5250    -9.4428    -9.3562  
  823.00000p   -9.5674    -9.5269    -9.4440    -9.3586  
  824.00000p   -9.5701    -9.5287    -9.4453    -9.3609  
  825.00000p   -9.5728    -9.5306    -9.4465    -9.3633  
  826.00000p   -9.5755    -9.5325    -9.4478    -9.3657  
  827.00000p   -9.5782    -9.5343    -9.4490    -9.3681  
  828.00000p   -9.5810    -9.5362    -9.4503    -9.3704  
  829.00000p   -9.5837    -9.5380    -9.4515    -9.3728  
  830.00000p   -9.5864    -9.5399    -9.4527    -9.3752  
  831.00000p   -9.5891    -9.5418    -9.4540    -9.3776  
  832.00000p   -9.5918    -9.5436    -9.4552    -9.3799  
  833.00000p   -9.5945    -9.5455    -9.4565    -9.3823  
  834.00000p   -9.5972    -9.5474    -9.4577    -9.3847  
  835.00000p   -9.6000    -9.5492    -9.4590    -9.3871  
  836.00000p   -9.6027    -9.5511    -9.4602    -9.3894  
  837.00000p   -9.6054    -9.5530    -9.4614    -9.3918  
  838.00000p   -9.6081    -9.5548    -9.4627    -9.3942  
  839.00000p   -9.6108    -9.5567    -9.4639    -9.3966  
  840.00000p   -9.6135    -9.5585    -9.4652    -9.3989  
  841.00000p   -9.6162    -9.5604    -9.4664    -9.4013  
  842.00000p   -9.6190    -9.5623    -9.4677    -9.4037  
  843.00000p   -9.6217    -9.5641    -9.4689    -9.4061  
  844.00000p   -9.6244    -9.5660    -9.4701    -9.4084  
  845.00000p   -9.6271    -9.5679    -9.4714    -9.4108  
  846.00000p   -9.6298    -9.5697    -9.4726    -9.4132  
  847.00000p   -9.6325    -9.5716    -9.4739    -9.4156  
  848.00000p   -9.6352    -9.5735    -9.4751    -9.4179  
  849.00000p   -9.6380    -9.5753    -9.4764    -9.4203  
  850.00000p   -9.6407    -9.5772    -9.4776    -9.4227  
  851.00000p   -9.6434    -9.5790    -9.4788    -9.4251  
  852.00000p   -9.6461    -9.5809    -9.4801    -9.4274  
  853.00000p   -9.6488    -9.5828    -9.4813    -9.4298  
  854.00000p   -9.6515    -9.5846    -9.4826    -9.4322  
  855.00000p   -9.6542    -9.5865    -9.4838    -9.4346  
  856.00000p   -9.6566    -9.5881    -9.4851    -9.4369  
  857.00000p   -9.6582    -9.5892    -9.4866    -9.4392  
  858.00000p   -9.6598    -9.5904    -9.4881    -9.4415  
  859.00000p   -9.6614    -9.5915    -9.4895    -9.4438  
  860.00000p   -9.6630    -9.5927    -9.4910    -9.4461  
  861.00000p   -9.6647    -9.5938    -9.4925    -9.4484  
  862.00000p   -9.6663    -9.5949    -9.4939    -9.4507  
  863.00000p   -9.6679    -9.5961    -9.4954    -9.4531  
  864.00000p   -9.6695    -9.5972    -9.4969    -9.4554  
  865.00000p   -9.6711    -9.5983    -9.4984    -9.4577  
  866.00000p   -9.6728    -9.5995    -9.4998    -9.4600  
  867.00000p   -9.6744    -9.6006    -9.5013    -9.4623  
  868.00000p   -9.6760    -9.6018    -9.5028    -9.4646  
  869.00000p   -9.6776    -9.6029    -9.5042    -9.4669  
  870.00000p   -9.6792    -9.6040    -9.5057    -9.4692  
  871.00000p   -9.6808    -9.6052    -9.5072    -9.4715  
  872.00000p   -9.6825    -9.6063    -9.5086    -9.4738  
  873.00000p   -9.6841    -9.6074    -9.5101    -9.4761  
  874.00000p   -9.6857    -9.6086    -9.5116    -9.4784  
  875.00000p   -9.6873    -9.6097    -9.5130    -9.4807  
  876.00000p   -9.6889    -9.6108    -9.5145    -9.4830  
  877.00000p   -9.6905    -9.6120    -9.5160    -9.4853  
  878.00000p   -9.6922    -9.6131    -9.5175    -9.4876  
  879.00000p   -9.6938    -9.6143    -9.5189    -9.4899  
  880.00000p   -9.6954    -9.6154    -9.5204    -9.4922  
  881.00000p   -9.6970    -9.6165    -9.5219    -9.4945  
  882.00000p   -9.6986    -9.6177    -9.5233    -9.4968  
  883.00000p   -9.7003    -9.6188    -9.5248    -9.4991  
  884.00000p   -9.7019    -9.6199    -9.5263    -9.5014  
  885.00000p   -9.7035    -9.6211    -9.5277    -9.5037  
  886.00000p   -9.7051    -9.6222    -9.5292    -9.5060  
  887.00000p   -9.7067    -9.6234    -9.5307    -9.5084  
  888.00000p   -9.7083    -9.6245    -9.5322    -9.5107  
  889.00000p   -9.7100    -9.6256    -9.5336    -9.5130  
  890.00000p   -9.7116    -9.6268    -9.5351    -9.5153  
  891.00000p   -9.7132    -9.6279    -9.5366    -9.5176  
  892.00000p   -9.7148    -9.6290    -9.5380    -9.5199  
  893.00000p   -9.7164    -9.6302    -9.5395    -9.5222  
  894.00000p   -9.7180    -9.6313    -9.5410    -9.5245  
  895.00000p   -9.7197    -9.6325    -9.5424    -9.5268  
  896.00000p   -9.7213    -9.6336    -9.5439    -9.5291  
  897.00000p   -9.7229    -9.6347    -9.5454    -9.5314  
  898.00000p   -9.7245    -9.6359    -9.5468    -9.5337  
  899.00000p   -9.7261    -9.6370    -9.5483    -9.5360  
  900.00000p   -9.7278    -9.6381    -9.5498    -9.5383  
  901.00000p   -9.5644    -9.4760    -9.3905    -9.3853  
  902.00000p   -9.4011    -9.3139    -9.2312    -9.2324  
  903.00000p   -9.2378    -9.1517    -9.0720    -9.0794  
  904.00000p   -9.0745    -8.9896    -8.9127    -8.9265  
  905.00000p   -8.9111    -8.8274    -8.7534    -8.7735  
  906.00000p   -8.7478    -8.6653    -8.5942    -8.6205  
  907.00000p   -8.5845    -8.5032    -8.4349    -8.4676  
  908.00000p   -8.4212    -8.3410    -8.2756    -8.3146  
  909.00000p   -8.2578    -8.1789    -8.1164    -8.1617  
  910.00000p   -8.0945    -8.0167    -7.9571    -8.0087  
  911.00000p   -7.9312    -7.8546    -7.7978    -7.8557  
  912.00000p   -7.7679    -7.6925    -7.6385    -7.7028  
  913.00000p   -7.6046    -7.5303    -7.4793    -7.5498  
  914.00000p   -7.4412    -7.3682    -7.3200    -7.3969  
  915.00000p   -7.2779    -7.2060    -7.1607    -7.2439  
  916.00000p   -7.1146    -7.0439    -7.0015    -7.0909  
  917.00000p   -6.9513    -6.8818    -6.8422    -6.9380  
  918.00000p   -6.7879    -6.7196    -6.6829    -6.7850  
  919.00000p   -6.6246    -6.5575    -6.5236    -6.6321  
  920.00000p   -6.4613    -6.3953    -6.3644    -6.4791  
  921.00000p   -6.2980    -6.2332    -6.2051    -6.3261  
  922.00000p   -6.1346    -6.0710    -6.0458    -6.1732  
  923.00000p   -5.9713    -5.9089    -5.8866    -6.0202  
  924.00000p   -5.8080    -5.7468    -5.7273    -5.8673  
  925.00000p   -5.6447    -5.5846    -5.5680    -5.7143  
  926.00000p   -5.4690    -5.4104    -5.3971    -5.5503  
  927.00000p   -5.2932    -5.2362    -5.2262    -5.3863  
  928.00000p   -5.1175    -5.0620    -5.0552    -5.2224  
  929.00000p   -4.9418    -4.8877    -4.8843    -5.0584  
  930.00000p   -4.7661    -4.7135    -4.7134    -4.8944  
  931.00000p   -4.5903    -4.5393    -4.5424    -4.7304  
  932.00000p   -4.4146    -4.3651    -4.3715    -4.5664  
  933.00000p   -4.2389    -4.1909    -4.2006    -4.4024  
  934.00000p   -4.0632    -4.0166    -4.0296    -4.2384  
  935.00000p   -3.8875    -3.8424    -3.8587    -4.0745  
  936.00000p   -3.7117    -3.6682    -3.6878    -3.9105  
  937.00000p   -3.5360    -3.4940    -3.5168    -3.7465  
  938.00000p   -3.3522    -3.3121    -3.3385    -3.5748  
  939.00000p   -3.1673    -3.1292    -3.1593    -3.4022  
  940.00000p   -2.9824    -2.9463    -2.9801    -3.2296  
  941.00000p   -2.7975    -2.7634    -2.8008    -3.0569  
  942.00000p   -2.6127    -2.5805    -2.6216    -2.8843  
  943.00000p   -2.4278    -2.3976    -2.4423    -2.7117  
  944.00000p   -2.2429    -2.2147    -2.2631    -2.5390  
  945.00000p   -2.0580    -2.0318    -2.0839    -2.3664  
  946.00000p   -1.8731    -1.8489    -1.9046    -2.1938  
  947.00000p   -1.6882    -1.6660    -1.7254    -2.0211  
  948.00000p   -1.5034    -1.4831    -1.5461    -1.8485  
  949.00000p   -1.3185    -1.3002    -1.3669    -1.6759  
  950.00000p   -1.1336    -1.1173    -1.1877    -1.5032  
  951.00000p   -1.1126    -1.0979    -1.1692    -1.4818  
  952.00000p   -1.0917    -1.0785    -1.1508    -1.4603  
  953.00000p   -1.0707    -1.0591    -1.1324    -1.4389  
  954.00000p   -1.0497    -1.0397    -1.1140    -1.4174  
  955.00000p   -1.0288    -1.0203    -1.0955    -1.3960  
  956.00000p   -1.0078    -1.0009    -1.0771    -1.3745  
  957.00000p -986.8632m -981.5132m   -1.0587    -1.3531  
  958.00000p -965.9030m -962.1084m   -1.0403    -1.3317  
  959.00000p -944.9429m -942.7036m   -1.0218    -1.3102  
  960.00000p -923.9828m -923.2989m   -1.0034    -1.2888  
  961.00000p -903.0226m -903.8941m -984.9926m   -1.2673  
  962.00000p -882.0625m -884.4893m -966.5687m   -1.2459  
  963.00000p -861.1024m -865.0846m -948.1448m   -1.2244  
  964.00000p -840.1422m -845.6798m -929.7209m   -1.2030  
  965.00000p -819.1821m -826.2750m -911.2969m   -1.1815  
  966.00000p -798.2219m -806.8703m -892.8730m   -1.1601  
  967.00000p -777.2618m -787.4655m -874.4491m   -1.1386  
  968.00000p -756.3017m -768.0607m -856.0252m   -1.1172  
  969.00000p -735.3415m -748.6560m -837.6013m   -1.0957  
  970.00000p -714.3814m -729.2512m -819.1773m   -1.0743  
  971.00000p -698.4119m -714.7902m -805.5100m   -1.0571  
  972.00000p -690.4346m -708.2462m -799.4600m   -1.0469  
  973.00000p -682.4574m -701.7022m -793.4099m   -1.0367  
  974.00000p -674.4801m -695.1582m -787.3599m   -1.0265  
  975.00000p -666.5028m -688.6142m -781.3099m   -1.0162  
  976.00000p -658.5255m -682.0702m -775.2599m   -1.0060  
  977.00000p -650.5482m -675.5262m -769.2098m -995.7819m 
  978.00000p -642.5709m -668.9822m -763.1598m -985.5562m 
  979.00000p -634.5936m -662.4382m -757.1098m -975.3305m 
  980.00000p -628.3670m -657.6125m -752.6714m -966.6736m 
  981.00000p -630.5842m -661.0748m -756.0066m -965.5835m 
  982.00000p -632.8014m -664.5371m -759.3417m -964.4934m 
  983.00000p -635.0185m -667.9993m -762.6769m -963.4034m 
  984.00000p -637.2357m -671.4616m -766.0120m -962.3133m 
  985.00000p -639.4529m -674.9239m -769.3472m -961.2233m 
  986.00000p -641.6701m -678.3862m -772.6823m -960.1332m 
  987.00000p -643.8872m -681.8485m -776.0175m -959.0432m 
  988.00000p -646.1044m -685.3107m -779.3526m -957.9531m 
  989.00000p -648.3216m -688.7730m -782.6878m -956.8630m 
  990.00000p -650.5388m -692.2353m -786.0229m -955.7730m 
  991.00000p -652.7559m -695.6976m -789.3581m -954.6829m 
  992.00000p -654.9731m -699.1599m -792.6932m -953.5929m 
  993.00000p -657.1903m -702.6221m -796.0284m -952.5028m 
  994.00000p -659.4075m -706.0844m -799.3635m -951.4127m 
  995.00000p -661.6246m -709.5467m -802.6987m -950.3227m 
  996.00000p -663.8418m -713.0090m -806.0338m -949.2326m 
  997.00000p -666.0590m -716.4713m -809.3690m -948.1426m 
  998.00000p -668.2762m -719.9335m -812.7041m -947.0525m 
  999.00000p -670.4933m -723.3958m -816.0393m -945.9625m 
    1.00000n -672.7105m -726.8581m -819.3744m -944.8724m 
y

          ***** job concluded
 ******  
 *a bus interconnect circuit with 34 bus line 16 segment.

 ****** job statistics summary tnom=  25.000 temp=  25.000 ******

  ******  HSPICE Threads Information  ******

  Command Line Threads Count :     1
  Available CPU Count        :     8
  Actual Threads Count       :     1


  ******  Circuit Statistics  ******
  # nodes       =    1123 # elements   =   19676
  # resistors   =     579 # capacitors =    9569 # inductors   =     544
  # mutual_inds =    8976 # vccs       =       0 # vcvs        =       0
  # cccs        =       0 # ccvs       =       0 # volt_srcs   =       0
  # curr_srcs   =       8 # diodes     =       0 # bjts        =       0
  # jfets       =       0 # mosfets    =       0 # U elements  =       0
  # T elements  =       0 # W elements =       0 # B elements  =       0
  # S elements  =       0 # P elements =       0 # va device   =       0
  # vector_srcs =       0 # N elements =       0


  ******  Runtime Statistics (seconds)  ******

  analysis           time    # points   tot. iter  conv.iter
  op point           0.03           1           1
  transient          0.56        1001         110          41 rev=         1
  readin             0.90
  errchk             0.08
  setup              0.20
  output             0.00


           peak memory used        114.80 megabytes
           total cpu time            1.90 seconds
           total elapsed time        2.97 seconds
           job started at     16:04:05 11/27/2022
           job ended   at     16:04:08 11/27/2022
           job total runtime         2.97 seconds


  lic: Release hspice token(s) 
 lic: total license checkout elapse time:        1.07(s)
