 ****** HSPICE -- P-2019.06-SP1-1 win64 (Sep 27 2019) ******                    
  Copyright (c) 1986 - 2022 by Synopsys, Inc. All Rights Reserved.              
  This software and the associated documentation are proprietary
  to Synopsys, Inc. This software may only be used in accordance
  with the terms and conditions of a written license agreement with
  Synopsys, Inc. All other use, reproduction, or distribution of
  this software is strictly prohibited.
  Input File: bus8bit8seg.sp                                                    
  Command line options: C:\synopsys\Hspice_P-2019.06-SP1-1\WIN64\hspice.com -i bus8bit8seg.sp -o D:\workspace\circuit_analysis\project3-5\src\bus8bit8seg.lis
  Start time: Sun Nov 27 16:19:43 2022
  lic:  
  lic: FLEXlm: SDK_12.3 
  lic: USER:   44919                HOSTNAME: CZJ 
  lic: HOSTID: "3cf01186422d"       PID:      21824 
  lic: Using FLEXlm license file: 
  lic: 27000@CZJ 
  lic: Checkout 1 hspice 
  lic: License/Maintenance for hspice will expire on 30-dec-2030/2030.12 
  lic: 1(in_use)/99(total) FLOATING license(s) on SERVER 27000@CZJ 
  lic:   
1****** HSPICE -- P-2019.06-SP1-1 win64 (Sep 27 2019) ******                    
 ******  
 *a bus interconnect circuit with 10 bus line 8 segment.

 ****** circuit name directory
 circuit number to circuit name directory
   number circuitname                     definition         multiplier
        0 main circuit
        1 x1.                             intercon           1.00 
  **info** (bus8bit8seg.sp:12) DC voltage reset to initial transient source value in source 0:iin1. new dc=0.0000D+00
  **warning** For .option genk=1, 0 implicit mutual inductors are generated!

             
 Summary of Linear Res Distribution Info
 -----------------------------------------------------
 |Range                        |Total     |Percent(%)|
 |-----------------------------+----------+----------|
 |1.000000e-01  ~  1.000000e+00|3         |3.2967    |
 |1.000000e+00  ~  1.000000e+03|88        |96.7033   |
 -----------------------------------------------------
              
             
 Summary of Linear Cap Distribution Info
 -----------------------------------------------------
 |Range                        |Total     |Percent(%)|
 |-----------------------------+----------+----------|
 |1.000000e-15  ~  1.000000e-14|142       |34.3826   |
 |1.000000e-14  ~  1.000000e-13|263       |63.6804   |
 |1.000000e-13  ~  1.000000e-12|8         |1.9370    |
 -----------------------------------------------------
              
             
 Summary of Detailed RC Type Statistics
 -------------------------
 |Element Type|Number    |
 |------------+----------|
 |Constant Res|91        |
 |            |          |
 |Constant Cap|413       |
 -------------------------
              
  
      
 *****************************************************************
 ******  option summary
 ******
 runlvl  = 3         bypass  = 2.0000    

 **info** rebuilding matrix with pivot option

 **info** dc convergence successful at Newton-Raphson method 
 ******  
 *a bus interconnect circuit with 10 bus line 8 segment.

 ****** operating point information tnom=  25.000 temp=  25.000 ******
 ****** operating point status is voltage   simulation time is     0.     
    node    =voltage      node    =voltage      node    =voltage

 +0:tdn1a1  =   0.      0:tdn1a9  =   0.      0:tdn2a1  =   0.     
 +0:tdn2a9  =   0.      0:tdn3a1  =   0.      0:tdn3a9  =   0.     
 +0:tdn4a1  =   0.      0:tdn4a9  =   0.      0:tdn5a1  =   0.     
 +0:tdn5a9  =   0.      0:tdn6a1  =   0.      0:tdn6a9  =   0.     
 +0:tdn7a1  =   0.      0:tdn7a9  =   0.      0:tdn8a1  =   0.     
 +0:tdn8a9  =   0.      0:tdnga1  =   0.      0:tdnga9  =   0.     
 +0:tdnva1  =   0.      0:tdnva9  =   0.      1:tdn1a10 =   0.     
 +1:tdn1a11 =   0.      1:tdn1a12 =   0.      1:tdn1a13 =   0.     
 +1:tdn1a14 =   0.      1:tdn1a15 =   0.      1:tdn1a16 =   0.     
 +1:tdn1a2  =   0.      1:tdn1a3  =   0.      1:tdn1a4  =   0.     
 +1:tdn1a5  =   0.      1:tdn1a6  =   0.      1:tdn1a7  =   0.     
 +1:tdn1a8  =   0.      1:tdn1a9  =   0.      1:tdn2a10 =   0.     
 +1:tdn2a11 =   0.      1:tdn2a12 =   0.      1:tdn2a13 =   0.     
 +1:tdn2a14 =   0.      1:tdn2a15 =   0.      1:tdn2a16 =   0.     
 +1:tdn2a2  =   0.      1:tdn2a3  =   0.      1:tdn2a4  =   0.     
 +1:tdn2a5  =   0.      1:tdn2a6  =   0.      1:tdn2a7  =   0.     
 +1:tdn2a8  =   0.      1:tdn2a9  =   0.      1:tdn3a10 =   0.     
 +1:tdn3a11 =   0.      1:tdn3a12 =   0.      1:tdn3a13 =   0.     
 +1:tdn3a14 =   0.      1:tdn3a15 =   0.      1:tdn3a16 =   0.     
 +1:tdn3a2  =   0.      1:tdn3a3  =   0.      1:tdn3a4  =   0.     
 +1:tdn3a5  =   0.      1:tdn3a6  =   0.      1:tdn3a7  =   0.     
 +1:tdn3a8  =   0.      1:tdn3a9  =   0.      1:tdn4a10 =   0.     
 +1:tdn4a11 =   0.      1:tdn4a12 =   0.      1:tdn4a13 =   0.     
 +1:tdn4a14 =   0.      1:tdn4a15 =   0.      1:tdn4a16 =   0.     
 +1:tdn4a2  =   0.      1:tdn4a3  =   0.      1:tdn4a4  =   0.     
 +1:tdn4a5  =   0.      1:tdn4a6  =   0.      1:tdn4a7  =   0.     
 +1:tdn4a8  =   0.      1:tdn4a9  =   0.      1:tdn5a10 =   0.     
 +1:tdn5a11 =   0.      1:tdn5a12 =   0.      1:tdn5a13 =   0.     
 +1:tdn5a14 =   0.      1:tdn5a15 =   0.      1:tdn5a16 =   0.     
 +1:tdn5a2  =   0.      1:tdn5a3  =   0.      1:tdn5a4  =   0.     
 +1:tdn5a5  =   0.      1:tdn5a6  =   0.      1:tdn5a7  =   0.     
 +1:tdn5a8  =   0.      1:tdn5a9  =   0.      1:tdn6a10 =   0.     
 +1:tdn6a11 =   0.      1:tdn6a12 =   0.      1:tdn6a13 =   0.     
 +1:tdn6a14 =   0.      1:tdn6a15 =   0.      1:tdn6a16 =   0.     
 +1:tdn6a2  =   0.      1:tdn6a3  =   0.      1:tdn6a4  =   0.     
 +1:tdn6a5  =   0.      1:tdn6a6  =   0.      1:tdn6a7  =   0.     
 +1:tdn6a8  =   0.      1:tdn6a9  =   0.      1:tdn7a10 =   0.     
 +1:tdn7a11 =   0.      1:tdn7a12 =   0.      1:tdn7a13 =   0.     
 +1:tdn7a14 =   0.      1:tdn7a15 =   0.      1:tdn7a16 =   0.     
 +1:tdn7a2  =   0.      1:tdn7a3  =   0.      1:tdn7a4  =   0.     
 +1:tdn7a5  =   0.      1:tdn7a6  =   0.      1:tdn7a7  =   0.     
 +1:tdn7a8  =   0.      1:tdn7a9  =   0.      1:tdn8a10 =   0.     
 +1:tdn8a11 =   0.      1:tdn8a12 =   0.      1:tdn8a13 =   0.     
 +1:tdn8a14 =   0.      1:tdn8a15 =   0.      1:tdn8a16 =   0.     
 +1:tdn8a2  =   0.      1:tdn8a3  =   0.      1:tdn8a4  =   0.     
 +1:tdn8a5  =   0.      1:tdn8a6  =   0.      1:tdn8a7  =   0.     
 +1:tdn8a8  =   0.      1:tdn8a9  =   0.      1:tdnga10 =   0.     
 +1:tdnga11 =   0.      1:tdnga12 =   0.      1:tdnga13 =   0.     
 +1:tdnga14 =   0.      1:tdnga15 =   0.      1:tdnga16 =   0.     
 +1:tdnga2  =   0.      1:tdnga3  =   0.      1:tdnga4  =   0.     
 +1:tdnga5  =   0.      1:tdnga6  =   0.      1:tdnga7  =   0.     
 +1:tdnga8  =   0.      1:tdnga9  =   0.      1:tdnva10 =   0.     
 +1:tdnva11 =   0.      1:tdnva12 =   0.      1:tdnva13 =   0.     
 +1:tdnva14 =   0.      1:tdnva15 =   0.      1:tdnva16 =   0.     
 +1:tdnva2  =   0.      1:tdnva3  =   0.      1:tdnva4  =   0.     
 +1:tdnva5  =   0.      1:tdnva6  =   0.      1:tdnva7  =   0.     
 +1:tdnva8  =   0.      1:tdnva9  =   0.     

 ******
 *a bus interconnect circuit with 10 bus line 8 segment.

 ****** transient analysis tnom=  25.000 temp=  25.000 ******
x

 time         voltage    voltage    voltage    voltage   
             tdn1a9     tdn2a9     tdn3a9     tdn4a9     
    0.          0.         0.         0.         0.      
    1.00000p    0.         0.         0.         0.      
    2.00000p    0.         0.         0.         0.      
    3.00000p    0.         0.         0.         0.      
    4.00000p    0.         0.         0.         0.      
    5.00000p    0.         0.         0.         0.      
    6.00000p    0.         0.         0.         0.      
    7.00000p    0.         0.         0.         0.      
    8.00000p    0.         0.         0.         0.      
    9.00000p    0.         0.         0.         0.      
   10.00000p    0.         0.         0.         0.      
   11.00000p    0.         0.         0.         0.      
   12.00000p    0.         0.         0.         0.      
   13.00000p    0.         0.         0.         0.      
   14.00000p    0.         0.         0.         0.      
   15.00000p    0.         0.         0.         0.      
   16.00000p    0.         0.         0.         0.      
   17.00000p    0.         0.         0.         0.      
   18.00000p    0.         0.         0.         0.      
   19.00000p    0.         0.         0.         0.      
   20.00000p    0.         0.         0.         0.      
   21.00000p    0.         0.         0.         0.      
   22.00000p    0.         0.         0.         0.      
   23.00000p    0.         0.         0.         0.      
   24.00000p    0.         0.         0.         0.      
   25.00000p    0.         0.         0.         0.      
   26.00000p    0.         0.         0.         0.      
   27.00000p    0.         0.         0.         0.      
   28.00000p    0.         0.         0.         0.      
   29.00000p    0.         0.         0.         0.      
   30.00000p    0.         0.         0.         0.      
   31.00000p    0.         0.         0.         0.      
   32.00000p    0.         0.         0.         0.      
   33.00000p    0.         0.         0.         0.      
   34.00000p    0.         0.         0.         0.      
   35.00000p    0.         0.         0.         0.      
   36.00000p    0.         0.         0.         0.      
   37.00000p    0.         0.         0.         0.      
   38.00000p    0.         0.         0.         0.      
   39.00000p    0.         0.         0.         0.      
   40.00000p    0.         0.         0.         0.      
   41.00000p    0.         0.         0.         0.      
   42.00000p    0.         0.         0.         0.      
   43.00000p    0.         0.         0.         0.      
   44.00000p    0.         0.         0.         0.      
   45.00000p    0.         0.         0.         0.      
   46.00000p    0.         0.         0.         0.      
   47.00000p    0.         0.         0.         0.      
   48.00000p    0.         0.         0.         0.      
   49.00000p    0.         0.         0.         0.      
   50.00000p    0.         0.         0.         0.      
   51.00000p  -18.0086m  -17.0598m  -17.2837m  -17.3260m 
   52.00000p  -36.0173m  -34.1196m  -34.5675m  -34.6519m 
   53.00000p  -54.0259m  -51.1794m  -51.8512m  -51.9779m 
   54.00000p  -72.0346m  -68.2391m  -69.1349m  -69.3039m 
   55.00000p  -90.0432m  -85.2989m  -86.4187m  -86.6299m 
   56.00000p -108.0518m -102.3587m -103.7024m -103.9558m 
   57.00000p -126.0605m -119.4185m -120.9861m -121.2818m 
   58.00000p -146.4785m -136.0431m -138.3906m -138.8841m 
   59.00000p -169.3060m -152.2324m -155.9157m -156.7626m 
   60.00000p -192.1335m -168.4217m -173.4409m -174.6412m 
   61.00000p -214.9610m -184.6110m -190.9660m -192.5198m 
   62.00000p -237.7884m -200.8003m -208.4912m -210.3983m 
   63.00000p -260.6159m -216.9896m -226.0163m -228.2769m 
   64.00000p -283.4434m -233.1789m -243.5415m -246.1555m 
   65.00000p -306.2709m -249.3682m -261.0667m -264.0341m 
   66.00000p -329.0984m -265.5575m -278.5918m -281.9126m 
   67.00000p -351.9258m -281.7469m -296.1170m -299.7912m 
   68.00000p -374.7533m -297.9362m -313.6421m -317.6698m 
   69.00000p -397.5808m -314.1255m -331.1673m -335.5483m 
   70.00000p -420.4083m -330.3148m -348.6924m -353.4269m 
   71.00000p -443.2357m -346.5041m -366.2176m -371.3055m 
   72.00000p -466.0632m -362.6934m -383.7427m -389.1840m 
   73.00000p -488.8907m -378.8827m -401.2679m -407.0626m 
   74.00000p -537.9311m -388.2601m -415.4882m -423.6651m 
   75.00000p -604.7485m -393.0178m -427.4672m -439.4021m 
   76.00000p -671.5660m -397.7755m -439.4462m -455.1391m 
   77.00000p -738.3834m -402.5332m -451.4252m -470.8761m 
   78.00000p -805.2009m -407.2908m -463.4042m -486.6132m 
   79.00000p -872.0183m -412.0485m -475.3832m -502.3502m 
   80.00000p -938.8358m -416.8062m -487.3622m -518.0872m 
   81.00000p   -1.0057  -421.5639m -499.3412m -533.8242m 
   82.00000p   -1.0725  -426.3216m -511.3202m -549.5613m 
   83.00000p   -1.1393  -431.0792m -523.2992m -565.2983m 
   84.00000p   -1.2061  -435.8369m -535.2782m -581.0353m 
   85.00000p   -1.2729  -440.5946m -547.2572m -596.7723m 
   86.00000p   -1.3397  -445.3523m -559.2362m -612.5093m 
   87.00000p   -1.4066  -450.1100m -571.2152m -628.2464m 
   88.00000p   -1.4734  -454.8676m -583.1942m -643.9834m 
   89.00000p   -1.5402  -459.6253m -595.1732m -659.7204m 
   90.00000p   -1.6070  -464.3830m -607.1522m -675.4574m 
   91.00000p   -1.6738  -469.1407m -619.1312m -691.1945m 
   92.00000p   -1.7406  -473.8984m -631.1102m -706.9315m 
   93.00000p   -1.8075  -478.6561m -643.0892m -722.6685m 
   94.00000p   -1.8743  -483.4137m -655.0682m -738.4055m 
   95.00000p   -1.9411  -488.1714m -667.0472m -754.1425m 
   96.00000p   -2.0079  -492.9291m -679.0262m -769.8796m 
   97.00000p   -2.0747  -497.6868m -691.0052m -785.6166m 
   98.00000p   -2.1415  -502.4445m -702.9842m -801.3536m 
   99.00000p   -2.2084  -507.2021m -714.9632m -817.0906m 
  100.00000p   -2.2752  -511.9598m -726.9422m -832.8277m 
  101.00000p   -2.4236  -487.8526m -705.0205m -818.5840m 
  102.00000p   -2.5719  -463.7454m -683.0988m -804.3404m 
  103.00000p   -2.7203  -439.6382m -661.1772m -790.0967m 
  104.00000p   -2.8687  -415.5309m -639.2555m -775.8530m 
  105.00000p   -3.0170  -391.4237m -617.3338m -761.6094m 
  106.00000p   -3.1654  -367.3165m -595.4121m -747.3657m 
  107.00000p   -3.3137  -343.2093m -573.4905m -733.1221m 
  108.00000p   -3.4621  -319.1020m -551.5688m -718.8784m 
  109.00000p   -3.6105  -294.9948m -529.6471m -704.6348m 
  110.00000p   -3.7588  -270.8876m -507.7255m -690.3911m 
  111.00000p   -3.9072  -246.7804m -485.8038m -676.1475m 
  112.00000p   -4.0556  -222.6732m -463.8821m -661.9038m 
  113.00000p   -4.2039  -198.5659m -441.9604m -647.6602m 
  114.00000p   -4.3523  -174.4587m -420.0388m -633.4165m 
  115.00000p   -4.5007  -150.3515m -398.1171m -619.1729m 
  116.00000p   -4.6490  -126.2443m -376.1954m -604.9292m 
  117.00000p   -4.7974  -102.1370m -354.2737m -590.6856m 
  118.00000p   -4.9458   -78.0298m -332.3521m -576.4419m 
  119.00000p   -5.0941   -53.9226m -310.4304m -562.1983m 
  120.00000p   -5.2425   -29.8154m -288.5087m -547.9546m 
  121.00000p   -5.3992    -7.2757m -264.8434m -531.4780m 
  122.00000p   -5.5582    14.8161m -240.6799m -514.3633m 
  123.00000p   -5.7172    36.9079m -216.5164m -497.2486m 
  124.00000p   -5.8763    58.9997m -192.3529m -480.1339m 
  125.00000p   -6.0353    81.0914m -168.1894m -463.0193m 
  126.00000p   -6.1943   103.1832m -144.0258m -445.9046m 
  127.00000p   -6.3534   125.2750m -119.8623m -428.7899m 
  128.00000p   -6.5124   147.3668m  -95.6988m -411.6753m 
  129.00000p   -6.6714   169.4586m  -71.5353m -394.5606m 
  130.00000p   -6.8305   191.5504m  -47.3718m -377.4459m 
  131.00000p   -6.9895   213.6422m  -23.2082m -360.3312m 
  132.00000p   -7.1339   225.2031m   -2.7361m -342.3889m 
  133.00000p   -7.2607   224.1271m   13.3064m -323.4534m 
  134.00000p   -7.3875   223.0511m   29.3489m -304.5179m 
  135.00000p   -7.5143   221.9751m   45.3914m -285.5823m 
  136.00000p   -7.6411   220.8991m   61.4339m -266.6468m 
  137.00000p   -7.7679   219.8232m   77.4764m -247.7113m 
  138.00000p   -7.8947   218.7472m   93.5188m -228.7758m 
  139.00000p   -8.0215   217.6712m  109.5613m -209.8402m 
  140.00000p   -8.1483   216.5952m  125.6038m -190.9047m 
  141.00000p   -8.2751   215.5192m  141.6463m -171.9692m 
  142.00000p   -8.4019   214.4432m  157.6888m -153.0337m 
  143.00000p   -8.5288   213.3672m  173.7313m -134.0981m 
  144.00000p   -8.6556   212.2912m  189.7738m -115.1626m 
  145.00000p   -8.7824   211.2152m  205.8163m  -96.2271m 
  146.00000p   -8.9092   210.1392m  221.8588m  -77.2916m 
  147.00000p   -9.0360   209.0632m  237.9013m  -58.3560m 
  148.00000p   -9.1628   207.9872m  253.9438m  -39.4205m 
  149.00000p   -9.2896   206.9112m  269.9863m  -20.4850m 
  150.00000p   -9.4164   205.8352m  286.0288m   -1.5495m 
  151.00000p   -9.5432   204.7592m  302.0712m   17.3861m 
  152.00000p   -9.6700   203.6832m  318.1137m   36.3216m 
  153.00000p   -9.7968   202.6073m  334.1562m   55.2571m 
  154.00000p   -9.9236   201.5313m  350.1987m   74.1926m 
  155.00000p  -10.0504   200.4553m  366.2412m   93.1282m 
  156.00000p  -10.1772   199.3793m  382.2837m  112.0637m 
  157.00000p  -10.3040   198.3033m  398.3262m  130.9992m 
  158.00000p  -10.4308   197.2273m  414.3687m  149.9347m 
  159.00000p  -10.5576   196.1513m  430.4112m  168.8702m 
  160.00000p  -10.6844   195.0753m  446.4537m  187.8058m 
  161.00000p  -10.8112   193.9993m  462.4962m  206.7413m 
  162.00000p  -10.9380   192.9233m  478.5387m  225.6768m 
  163.00000p  -11.0648   191.8473m  494.5812m  244.6123m 
  164.00000p  -11.1917   190.7713m  510.6236m  263.5479m 
  165.00000p  -11.3185   189.6953m  526.6661m  282.4834m 
  166.00000p  -11.4453   188.6193m  542.7086m  301.4189m 
  167.00000p  -11.5721   187.5433m  558.7511m  320.3544m 
  168.00000p  -11.6742   181.9285m  569.3071m  336.2365m 
  169.00000p  -11.6891   160.2432m  560.4372m  341.3073m 
  170.00000p  -11.7040   138.5579m  551.5674m  346.3780m 
  171.00000p  -11.7189   116.8727m  542.6975m  351.4488m 
  172.00000p  -11.7338    95.1874m  533.8276m  356.5196m 
  173.00000p  -11.7487    73.5021m  524.9578m  361.5903m 
  174.00000p  -11.7636    51.8168m  516.0879m  366.6611m 
  175.00000p  -11.7785    30.1315m  507.2181m  371.7319m 
  176.00000p  -11.7934     8.4463m  498.3482m  376.8027m 
  177.00000p  -11.8082   -13.2390m  489.4783m  381.8734m 
  178.00000p  -11.8231   -34.9243m  480.6085m  386.9442m 
  179.00000p  -11.8380   -56.6096m  471.7386m  392.0150m 
  180.00000p  -11.8529   -78.2948m  462.8688m  397.0858m 
  181.00000p  -11.8678   -99.9801m  453.9989m  402.1565m 
  182.00000p  -11.8827  -121.6654m  445.1290m  407.2273m 
  183.00000p  -11.8976  -143.3507m  436.2592m  412.2981m 
  184.00000p  -11.9125  -165.0360m  427.3893m  417.3688m 
  185.00000p  -11.9274  -186.7212m  418.5195m  422.4396m 
  186.00000p  -11.9423  -208.4065m  409.6496m  427.5104m 
  187.00000p  -11.9572  -230.0918m  400.7797m  432.5812m 
  188.00000p  -11.9720  -251.7771m  391.9099m  437.6519m 
  189.00000p  -11.9869  -273.4624m  383.0400m  442.7227m 
  190.00000p  -12.0018  -295.1476m  374.1702m  447.7935m 
  191.00000p  -12.0167  -316.8329m  365.3003m  452.8642m 
  192.00000p  -12.0316  -338.5182m  356.4304m  457.9350m 
  193.00000p  -12.0465  -360.2035m  347.5606m  463.0058m 
  194.00000p  -12.0614  -381.8887m  338.6907m  468.0766m 
  195.00000p  -12.0763  -403.5740m  329.8209m  473.1473m 
  196.00000p  -12.0912  -425.2593m  320.9510m  478.2181m 
  197.00000p  -12.1061  -446.9446m  312.0812m  483.2889m 
  198.00000p  -12.1210  -468.6299m  303.2113m  488.3597m 
  199.00000p  -12.1358  -490.3151m  294.3414m  493.4304m 
  200.00000p  -12.1507  -512.0004m  285.4716m  498.5012m 
  201.00000p  -12.1656  -533.6857m  276.6017m  503.5720m 
  202.00000p  -12.1805  -555.3710m  267.7319m  508.6427m 
  203.00000p  -12.1954  -577.0563m  258.8620m  513.7135m 
  204.00000p  -12.2103  -598.7415m  249.9921m  518.7843m 
  205.00000p  -12.2252  -620.4268m  241.1223m  523.8551m 
  206.00000p  -12.2401  -642.1121m  232.2524m  528.9258m 
  207.00000p  -12.2550  -663.7974m  223.3826m  533.9966m 
  208.00000p  -12.2699  -685.4826m  214.5127m  539.0674m 
  209.00000p  -12.2848  -707.1679m  205.6428m  544.1381m 
  210.00000p  -12.2996  -728.8532m  196.7730m  549.2089m 
  211.00000p  -12.3013  -745.0503m  187.0906m  550.7336m 
  212.00000p  -12.2618  -744.2098m  174.8860m  541.2494m 
  213.00000p  -12.2223  -743.3693m  162.6814m  531.7653m 
  214.00000p  -12.1828  -742.5288m  150.4768m  522.2811m 
  215.00000p  -12.1433  -741.6883m  138.2722m  512.7970m 
  216.00000p  -12.1037  -740.8478m  126.0676m  503.3129m 
  217.00000p  -12.0642  -740.0073m  113.8629m  493.8287m 
  218.00000p  -12.0247  -739.1668m  101.6583m  484.3446m 
  219.00000p  -11.9852  -738.3263m   89.4537m  474.8604m 
  220.00000p  -11.9457  -737.4858m   77.2491m  465.3763m 
  221.00000p  -11.9062  -736.6452m   65.0445m  455.8922m 
  222.00000p  -11.8667  -735.8047m   52.8399m  446.4080m 
  223.00000p  -11.8272  -734.9642m   40.6353m  436.9239m 
  224.00000p  -11.7877  -734.1237m   28.4306m  427.4397m 
  225.00000p  -11.7482  -733.2832m   16.2260m  417.9556m 
  226.00000p  -11.7087  -732.4427m    4.0214m  408.4715m 
  227.00000p  -11.6692  -731.6022m   -8.1832m  398.9873m 
  228.00000p  -11.6297  -730.7617m  -20.3878m  389.5032m 
  229.00000p  -11.5902  -729.9212m  -32.5924m  380.0190m 
  230.00000p  -11.5506  -729.0807m  -44.7971m  370.5349m 
  231.00000p  -11.5111  -728.2402m  -57.0017m  361.0508m 
  232.00000p  -11.4716  -727.3997m  -69.2063m  351.5666m 
  233.00000p  -11.4321  -726.5591m  -81.4109m  342.0825m 
  234.00000p  -11.3926  -725.7186m  -93.6155m  332.5983m 
  235.00000p  -11.3531  -724.8781m -105.8201m  323.1142m 
  236.00000p  -11.3136  -724.0376m -118.0248m  313.6301m 
  237.00000p  -11.2741  -723.1971m -130.2294m  304.1459m 
  238.00000p  -11.2346  -722.3566m -142.4340m  294.6618m 
  239.00000p  -11.1951  -721.5161m -154.6386m  285.1776m 
  240.00000p  -11.1556  -720.6756m -166.8432m  275.6935m 
  241.00000p  -11.1161  -719.8351m -179.0478m  266.2094m 
  242.00000p  -11.0766  -718.9946m -191.2525m  256.7252m 
  243.00000p  -11.0371  -718.1541m -203.4571m  247.2411m 
  244.00000p  -10.9975  -717.3136m -215.6617m  237.7569m 
  245.00000p  -10.9580  -716.4730m -227.8663m  228.2728m 
  246.00000p  -10.9185  -715.6325m -240.0709m  218.7887m 
  247.00000p  -10.8790  -714.7920m -252.2755m  209.3045m 
  248.00000p  -10.8395  -713.9515m -264.4802m  199.8204m 
  249.00000p  -10.8000  -713.1110m -276.6848m  190.3362m 
  250.00000p  -10.7605  -712.2705m -288.8894m  180.8521m 
  251.00000p  -10.7210  -711.4300m -301.0940m  171.3680m 
  252.00000p  -10.6815  -710.5895m -313.2986m  161.8838m 
  253.00000p  -10.6420  -709.7490m -325.5032m  152.3997m 
  254.00000p  -10.6025  -708.9085m -337.7078m  142.9155m 
  255.00000p  -10.5630  -708.0680m -349.9125m  133.4314m 
  256.00000p  -10.5235  -707.2275m -362.1171m  123.9473m 
  257.00000p  -10.4840  -706.3869m -374.3217m  114.4631m 
  258.00000p  -10.4444  -705.5464m -386.5263m  104.9790m 
  259.00000p  -10.4049  -704.7059m -398.7309m   95.4948m 
  260.00000p  -10.3654  -703.8654m -410.9355m   86.0107m 
  261.00000p  -10.3322  -698.9047m -418.8677m   77.4658m 
  262.00000p  -10.3156  -682.9793m -415.4299m   71.4204m 
  263.00000p  -10.2990  -667.0538m -411.9922m   65.3749m 
  264.00000p  -10.2824  -651.1284m -408.5544m   59.3295m 
  265.00000p  -10.2658  -635.2030m -405.1167m   53.2840m 
  266.00000p  -10.2492  -619.2775m -401.6789m   47.2386m 
  267.00000p  -10.2326  -603.3521m -398.2412m   41.1932m 
  268.00000p  -10.2160  -587.4267m -394.8034m   35.1477m 
  269.00000p  -10.1994  -571.5012m -391.3657m   29.1023m 
  270.00000p  -10.1828  -555.5758m -387.9279m   23.0568m 
  271.00000p  -10.1663  -539.6504m -384.4902m   17.0114m 
  272.00000p  -10.1497  -523.7250m -381.0524m   10.9659m 
  273.00000p  -10.1331  -507.7995m -377.6147m    4.9205m 
  274.00000p  -10.1165  -491.8741m -374.1769m   -1.1249m 
  275.00000p  -10.0999  -475.9487m -370.7392m   -7.1704m 
  276.00000p  -10.0833  -460.0232m -367.3014m  -13.2158m 
  277.00000p  -10.0667  -444.0978m -363.8637m  -19.2613m 
  278.00000p  -10.0501  -428.1724m -360.4260m  -25.3067m 
  279.00000p  -10.0335  -412.2469m -356.9882m  -31.3521m 
  280.00000p  -10.0169  -396.3215m -353.5505m  -37.3976m 
  281.00000p  -10.0003  -380.3961m -350.1127m  -43.4430m 
  282.00000p   -9.9837  -364.4707m -346.6750m  -49.4885m 
  283.00000p   -9.9671  -348.5452m -343.2372m  -55.5339m 
  284.00000p   -9.9505  -332.6198m -339.7995m  -61.5793m 
  285.00000p   -9.9339  -316.6944m -336.3617m  -67.6248m 
  286.00000p   -9.9174  -300.7689m -332.9240m  -73.6702m 
  287.00000p   -9.9008  -284.8435m -329.4862m  -79.7157m 
  288.00000p   -9.8842  -268.9181m -326.0485m  -85.7611m 
  289.00000p   -9.8676  -252.9927m -322.6107m  -91.8065m 
  290.00000p   -9.8510  -237.0672m -319.1730m  -97.8520m 
  291.00000p   -9.8344  -221.1418m -315.7352m -103.8974m 
  292.00000p   -9.8178  -205.2164m -312.2975m -109.9429m 
  293.00000p   -9.8012  -189.2909m -308.8597m -115.9883m 
  294.00000p   -9.7846  -173.3655m -305.4220m -122.0338m 
  295.00000p   -9.7680  -157.4401m -301.9842m -128.0792m 
  296.00000p   -9.7514  -141.5146m -298.5465m -134.1246m 
  297.00000p   -9.7348  -125.5892m -295.1087m -140.1701m 
  298.00000p   -9.7182  -109.6638m -291.6710m -146.2155m 
  299.00000p   -9.7016   -93.7384m -288.2332m -152.2610m 
  300.00000p   -9.6851   -77.8129m -284.7955m -158.3064m 
  301.00000p   -9.6685   -61.8875m -281.3577m -164.3518m 
  302.00000p   -9.6519   -45.9621m -277.9200m -170.3973m 
  303.00000p   -9.6353   -30.0366m -274.4822m -176.4427m 
  304.00000p   -9.6187   -14.1112m -271.0445m -182.4882m 
  305.00000p   -9.6021     1.8142m -267.6067m -188.5336m 
  306.00000p   -9.5855    17.7396m -264.1690m -194.5790m 
  307.00000p   -9.5689    33.6651m -260.7312m -200.6245m 
  308.00000p   -9.5523    49.5905m -257.2935m -206.6699m 
  309.00000p   -9.5357    65.5159m -253.8558m -212.7154m 
  310.00000p   -9.5191    81.4414m -250.4180m -218.7608m 
  311.00000p   -9.5069    94.6533m -246.2446m -223.1781m 
  312.00000p   -9.5064   100.6443m -240.1133m -223.2628m 
  313.00000p   -9.5059   106.6352m -233.9821m -223.3475m 
  314.00000p   -9.5054   112.6262m -227.8508m -223.4322m 
  315.00000p   -9.5049   118.6171m -221.7195m -223.5168m 
  316.00000p   -9.5044   124.6081m -215.5883m -223.6015m 
  317.00000p   -9.5039   130.5990m -209.4570m -223.6862m 
  318.00000p   -9.5034   136.5900m -203.3258m -223.7709m 
  319.00000p   -9.5029   142.5810m -197.1945m -223.8555m 
  320.00000p   -9.5024   148.5719m -191.0633m -223.9402m 
  321.00000p   -9.5019   154.5629m -184.9320m -224.0249m 
  322.00000p   -9.5014   160.5538m -178.8008m -224.1096m 
  323.00000p   -9.5009   166.5448m -172.6695m -224.1942m 
  324.00000p   -9.5004   172.5357m -166.5383m -224.2789m 
  325.00000p   -9.4999   178.5267m -160.4070m -224.3636m 
  326.00000p   -9.4994   184.5176m -154.2757m -224.4483m 
  327.00000p   -9.4989   190.5086m -148.1445m -224.5329m 
  328.00000p   -9.4984   196.4995m -142.0132m -224.6176m 
  329.00000p   -9.4979   202.4905m -135.8820m -224.7023m 
  330.00000p   -9.4974   208.4814m -129.7507m -224.7870m 
  331.00000p   -9.4969   214.4724m -123.6195m -224.8716m 
  332.00000p   -9.4964   220.4633m -117.4882m -224.9563m 
  333.00000p   -9.4959   226.4543m -111.3570m -225.0410m 
  334.00000p   -9.4954   232.4452m -105.2257m -225.1257m 
  335.00000p   -9.4949   238.4362m  -99.0944m -225.2103m 
  336.00000p   -9.4944   244.4271m  -92.9632m -225.2950m 
  337.00000p   -9.4939   250.4181m  -86.8319m -225.3797m 
  338.00000p   -9.4934   256.4090m  -80.7007m -225.4644m 
  339.00000p   -9.4928   262.4000m  -74.5694m -225.5490m 
  340.00000p   -9.4923   268.3909m  -68.4382m -225.6337m 
  341.00000p   -9.4918   274.3819m  -62.3069m -225.7184m 
  342.00000p   -9.4913   280.3728m  -56.1757m -225.8031m 
  343.00000p   -9.4908   286.3638m  -50.0444m -225.8877m 
  344.00000p   -9.4903   292.3548m  -43.9132m -225.9724m 
  345.00000p   -9.4898   298.3457m  -37.7819m -226.0571m 
  346.00000p   -9.4893   304.3367m  -31.6506m -226.1418m 
  347.00000p   -9.4888   310.3276m  -25.5194m -226.2264m 
  348.00000p   -9.4883   316.3186m  -19.3881m -226.3111m 
  349.00000p   -9.4878   322.3095m  -13.2569m -226.3958m 
  350.00000p   -9.4873   328.3005m   -7.1256m -226.4805m 
  351.00000p   -9.4868   334.2914m -994.3718u -226.5651m 
  352.00000p   -9.4863   340.2824m    5.1369m -226.6498m 
  353.00000p   -9.4858   346.2733m   11.2681m -226.7345m 
  354.00000p   -9.4853   352.2643m   17.3994m -226.8192m 
  355.00000p   -9.4848   358.2552m   23.5306m -226.9038m 
  356.00000p   -9.4843   364.2462m   29.6619m -226.9885m 
  357.00000p   -9.4838   370.2371m   35.7932m -227.0732m 
  358.00000p   -9.4833   376.2281m   41.9244m -227.1579m 
  359.00000p   -9.4828   382.2190m   48.0557m -227.2425m 
  360.00000p   -9.4823   388.2100m   54.1869m -227.3272m 
  361.00000p   -9.4857   392.2780m   60.2754m -225.9985m 
  362.00000p   -9.4996   391.2288m   66.2499m -220.9087m 
  363.00000p   -9.5134   390.1796m   72.2244m -215.8188m 
  364.00000p   -9.5273   389.1304m   78.1989m -210.7290m 
  365.00000p   -9.5412   388.0812m   84.1734m -205.6391m 
  366.00000p   -9.5550   387.0320m   90.1479m -200.5493m 
  367.00000p   -9.5689   385.9828m   96.1224m -195.4595m 
  368.00000p   -9.5828   384.9337m  102.0969m -190.3696m 
  369.00000p   -9.5966   383.8845m  108.0714m -185.2798m 
  370.00000p   -9.6105   382.8353m  114.0459m -180.1899m 
  371.00000p   -9.6244   381.7861m  120.0204m -175.1001m 
  372.00000p   -9.6382   380.7369m  125.9949m -170.0102m 
  373.00000p   -9.6521   379.6877m  131.9694m -164.9204m 
  374.00000p   -9.6659   378.6385m  137.9439m -159.8305m 
  375.00000p   -9.6798   377.5893m  143.9184m -154.7407m 
  376.00000p   -9.6937   376.5401m  149.8929m -149.6508m 
  377.00000p   -9.7075   375.4909m  155.8674m -144.5610m 
  378.00000p   -9.7214   374.4417m  161.8419m -139.4711m 
  379.00000p   -9.7353   373.3925m  167.8164m -134.3813m 
  380.00000p   -9.7491   372.3433m  173.7909m -129.2914m 
  381.00000p   -9.7630   371.2941m  179.7654m -124.2016m 
  382.00000p   -9.7769   370.2449m  185.7399m -119.1117m 
  383.00000p   -9.7907   369.1957m  191.7144m -114.0219m 
  384.00000p   -9.8046   368.1465m  197.6889m -108.9320m 
  385.00000p   -9.8185   367.0973m  203.6634m -103.8422m 
  386.00000p   -9.8323   366.0481m  209.6379m  -98.7523m 
  387.00000p   -9.8462   364.9989m  215.6124m  -93.6625m 
  388.00000p   -9.8600   363.9497m  221.5869m  -88.5726m 
  389.00000p   -9.8739   362.9006m  227.5614m  -83.4828m 
  390.00000p   -9.8878   361.8514m  233.5360m  -78.3930m 
  391.00000p   -9.9016   360.8022m  239.5105m  -73.3031m 
  392.00000p   -9.9155   359.7530m  245.4850m  -68.2133m 
  393.00000p   -9.9294   358.7038m  251.4595m  -63.1234m 
  394.00000p   -9.9432   357.6546m  257.4340m  -58.0336m 
  395.00000p   -9.9571   356.6054m  263.4085m  -52.9437m 
  396.00000p   -9.9710   355.5562m  269.3830m  -47.8539m 
  397.00000p   -9.9848   354.5070m  275.3575m  -42.7640m 
  398.00000p   -9.9987   353.4578m  281.3320m  -37.6742m 
  399.00000p  -10.0126   352.4086m  287.3065m  -32.5843m 
  400.00000p  -10.0264   351.3594m  293.2810m  -27.4945m 
  401.00000p   -9.9772   352.7231m  303.2887m   -8.1878m 
  402.00000p   -9.9281   354.0868m  313.2964m   11.1189m 
  403.00000p   -9.8789   355.4504m  323.3041m   30.4256m 
  404.00000p   -9.8297   356.8141m  333.3118m   49.7322m 
  405.00000p   -9.7805   358.1778m  343.3195m   69.0389m 
  406.00000p   -9.7313   359.5415m  353.3272m   88.3456m 
  407.00000p   -9.6822   360.9052m  363.3349m  107.6523m 
  408.00000p   -9.6330   362.2688m  373.3426m  126.9590m 
  409.00000p   -9.5838   363.6325m  383.3503m  146.2657m 
  410.00000p   -9.5346   364.9962m  393.3580m  165.5723m 
  411.00000p   -9.4854   366.3599m  403.3657m  184.8790m 
  412.00000p   -9.4362   367.7236m  413.3734m  204.1857m 
  413.00000p   -9.3871   369.0873m  423.3811m  223.4924m 
  414.00000p   -9.3379   370.4509m  433.3888m  242.7991m 
  415.00000p   -9.2887   371.8146m  443.3965m  262.1057m 
  416.00000p   -9.2395   373.1783m  453.4042m  281.4124m 
  417.00000p   -9.1903   374.5420m  463.4119m  300.7191m 
  418.00000p   -9.1412   375.9057m  473.4196m  320.0258m 
  419.00000p   -9.0920   377.2693m  483.4273m  339.3325m 
  420.00000p   -9.0428   378.6330m  493.4350m  358.6391m 
  421.00000p   -8.9936   379.9967m  503.4427m  377.9458m 
  422.00000p   -8.9444   381.3604m  513.4504m  397.2525m 
  423.00000p   -8.8953   382.7241m  523.4581m  416.5592m 
  424.00000p   -8.8461   384.0877m  533.4658m  435.8659m 
  425.00000p   -8.7969   385.4514m  543.4736m  455.1725m 
  426.00000p   -8.7348   385.0584m  550.2858m  472.3585m 
  427.00000p   -8.6726   384.6654m  557.0980m  489.5444m 
  428.00000p   -8.6105   384.2723m  563.9102m  506.7303m 
  429.00000p   -8.5484   383.8793m  570.7225m  523.9163m 
  430.00000p   -8.4863   383.4863m  577.5347m  541.1022m 
  431.00000p   -8.4241   383.0932m  584.3469m  558.2882m 
  432.00000p   -8.3620   382.7002m  591.1591m  575.4741m 
  433.00000p   -8.2999   382.3072m  597.9714m  592.6600m 
  434.00000p   -8.2378   381.9141m  604.7836m  609.8460m 
  435.00000p   -8.1756   381.5211m  611.5958m  627.0319m 
  436.00000p   -8.1135   381.1281m  618.4081m  644.2178m 
  437.00000p   -8.0367   379.1015m  622.2371m  658.8309m 
  438.00000p   -7.9436   375.2588m  622.7494m  670.5832m 
  439.00000p   -7.8505   371.4160m  623.2616m  682.3355m 
  440.00000p   -7.7573   367.5733m  623.7738m  694.0878m 
  441.00000p   -7.6642   363.7305m  624.2861m  705.8401m 
  442.00000p   -7.5711   359.8878m  624.7983m  717.5924m 
  443.00000p   -7.4780   356.0450m  625.3106m  729.3447m 
  444.00000p   -7.3849   352.2022m  625.8228m  741.0970m 
  445.00000p   -7.2917   348.3595m  626.3350m  752.8493m 
  446.00000p   -7.1986   344.5167m  626.8473m  764.6016m 
  447.00000p   -7.1055   340.6740m  627.3595m  776.3539m 
  448.00000p   -7.0124   336.8312m  627.8718m  788.1062m 
  449.00000p   -6.9193   332.9884m  628.3840m  799.8586m 
  450.00000p   -6.8261   329.1457m  628.8962m  811.6109m 
  451.00000p   -6.6947   310.7532m  606.8904m  796.0194m 
  452.00000p   -6.5632   292.3607m  584.8847m  780.4279m 
  453.00000p   -6.4317   273.9681m  562.8789m  764.8364m 
  454.00000p   -6.3002   255.5756m  540.8731m  749.2449m 
  455.00000p   -6.1687   237.1831m  518.8673m  733.6534m 
  456.00000p   -6.0373   218.7906m  496.8615m  718.0619m 
  457.00000p   -5.9058   200.3981m  474.8557m  702.4704m 
  458.00000p   -5.7743   182.0056m  452.8499m  686.8789m 
  459.00000p   -5.6428   163.6130m  430.8441m  671.2874m 
  460.00000p   -5.5113   145.2205m  408.8383m  655.6959m 
  461.00000p   -5.3798   126.8280m  386.8325m  640.1044m 
  462.00000p   -5.2484   108.4355m  364.8268m  624.5129m 
  463.00000p   -5.1169    90.0430m  342.8210m  608.9214m 
  464.00000p   -4.9854    71.6505m  320.8152m  593.3300m 
  465.00000p   -4.8539    53.2579m  298.8094m  577.7385m 
  466.00000p   -4.7224    34.8654m  276.8036m  562.1470m 
  467.00000p   -4.5910    16.4729m  254.7978m  546.5555m 
  468.00000p   -4.4595    -1.9196m  232.7920m  530.9640m 
  469.00000p   -4.3280   -20.3121m  210.7862m  515.3725m 
  470.00000p   -4.1965   -38.7046m  188.7804m  499.7810m 
  471.00000p   -4.0650   -57.0972m  166.7746m  484.1895m 
  472.00000p   -3.9310   -74.7748m  144.6542m  467.9784m 
  473.00000p   -3.7936   -91.5514m  122.3894m  450.9864m 
  474.00000p   -3.6563  -108.3280m  100.1245m  433.9944m 
  475.00000p   -3.5190  -125.1046m   77.8596m  417.0024m 
  476.00000p   -3.3817  -141.8813m   55.5947m  400.0104m 
  477.00000p   -3.2444  -158.6579m   33.3299m  383.0183m 
  478.00000p   -3.1071  -175.4345m   11.0650m  366.0263m 
  479.00000p   -2.9698  -192.2111m  -11.1999m  349.0343m 
  480.00000p   -2.8324  -208.9877m  -33.4647m  332.0423m 
  481.00000p   -2.6951  -225.7643m  -55.7296m  315.0502m 
  482.00000p   -2.5757  -227.4576m  -71.4699m  297.4801m 
  483.00000p   -2.4565  -228.9003m  -87.1018m  279.9004m 
  484.00000p   -2.3373  -230.3431m -102.7336m  262.3207m 
  485.00000p   -2.2182  -231.7858m -118.3655m  244.7410m 
  486.00000p   -2.0990  -233.2285m -133.9973m  227.1613m 
  487.00000p   -1.9798  -234.6713m -149.6292m  209.5816m 
  488.00000p   -1.8607  -236.1140m -165.2611m  192.0019m 
  489.00000p   -1.7415  -237.5567m -180.8929m  174.4222m 
  490.00000p   -1.6223  -238.9995m -196.5248m  156.8425m 
  491.00000p   -1.5032  -240.4422m -212.1567m  139.2628m 
  492.00000p   -1.3840  -241.8849m -227.7885m  121.6831m 
  493.00000p   -1.2648  -243.3277m -243.4204m  104.1034m 
  494.00000p   -1.1457  -244.7704m -259.0523m   86.5237m 
  495.00000p   -1.0265  -246.2131m -274.6841m   68.9440m 
  496.00000p -907.3175m -247.6559m -290.3160m   51.3643m 
  497.00000p -788.1504m -249.0986m -305.9478m   33.7846m 
  498.00000p -668.9833m -250.5413m -321.5797m   16.2049m 
  499.00000p -549.8163m -251.9840m -337.2116m   -1.3747m 
  500.00000p -430.6492m -253.4268m -352.8434m  -18.9544m 
  501.00000p -311.4821m -254.8695m -368.4753m  -36.5341m 
  502.00000p -192.3151m -256.3122m -384.1072m  -54.1138m 
  503.00000p  -73.1480m -257.7550m -399.7390m  -71.6935m 
  504.00000p   46.0191m -259.1977m -415.3709m  -89.2732m 
  505.00000p  165.1862m -260.6404m -431.0028m -106.8529m 
  506.00000p  284.3532m -262.0832m -446.6346m -124.4326m 
  507.00000p  403.5203m -263.5259m -462.2665m -142.0123m 
  508.00000p  522.6874m -264.9686m -477.8983m -159.5920m 
  509.00000p  641.8544m -266.4114m -493.5302m -177.1717m 
  510.00000p  761.0215m -267.8541m -509.1621m -194.7514m 
  511.00000p  880.1886m -269.2968m -524.7939m -212.3311m 
  512.00000p  937.5208m -256.4127m -525.8802m -222.7163m 
  513.00000p  970.2985m -237.8395m -521.1905m -230.2446m 
  514.00000p    1.0031  -219.2663m -516.5007m -237.7729m 
  515.00000p    1.0359  -200.6930m -511.8110m -245.3011m 
  516.00000p    1.0686  -182.1198m -507.1212m -252.8294m 
  517.00000p    1.1014  -163.5466m -502.4315m -260.3577m 
  518.00000p    1.1342  -144.9733m -497.7418m -267.8860m 
  519.00000p    1.1670  -126.4001m -493.0520m -275.4142m 
  520.00000p    1.1997  -107.8269m -488.3623m -282.9425m 
  521.00000p    1.2325   -89.2536m -483.6725m -290.4708m 
  522.00000p    1.2653   -70.6804m -478.9828m -297.9990m 
  523.00000p    1.2981   -52.1071m -474.2930m -305.5273m 
  524.00000p    1.3309   -33.5339m -469.6033m -313.0556m 
  525.00000p    1.3636   -14.9607m -464.9136m -320.5839m 
  526.00000p    1.3964     3.6126m -460.2238m -328.1121m 
  527.00000p    1.4292    22.1858m -455.5341m -335.6404m 
  528.00000p    1.4620    40.7590m -450.8443m -343.1687m 
  529.00000p    1.4947    59.3323m -446.1546m -350.6969m 
  530.00000p    1.5275    77.9055m -441.4648m -358.2252m 
  531.00000p    1.5603    96.4787m -436.7751m -365.7535m 
  532.00000p    1.5931   115.0520m -432.0853m -373.2818m 
  533.00000p    1.6259   133.6252m -427.3956m -380.8100m 
  534.00000p    1.6586   152.1985m -422.7059m -388.3383m 
  535.00000p    1.6914   170.7717m -418.0161m -395.8666m 
  536.00000p    1.7242   189.3449m -413.3264m -403.3948m 
  537.00000p    1.7570   207.9182m -408.6366m -410.9231m 
  538.00000p    1.7897   226.4914m -403.9469m -418.4514m 
  539.00000p    1.8225   245.0646m -399.2571m -425.9797m 
  540.00000p    1.8553   263.6379m -394.5674m -433.5079m 
  541.00000p    1.8881   282.2111m -389.8777m -441.0362m 
  542.00000p    1.9209   300.7843m -385.1879m -448.5645m 
  543.00000p    1.9536   319.3576m -380.4982m -456.0927m 
  544.00000p    1.9864   337.9308m -375.8084m -463.6210m 
  545.00000p    2.0192   356.5041m -371.1187m -471.1493m 
  546.00000p    2.0520   375.0773m -366.4289m -478.6776m 
  547.00000p    2.0847   393.6505m -361.7392m -486.2058m 
  548.00000p    2.1175   412.2238m -357.0495m -493.7341m 
  549.00000p    2.1503   430.7970m -352.3597m -501.2624m 
  550.00000p    2.1831   449.3702m -347.6700m -508.7906m 
  551.00000p    2.1019   444.8034m -347.1875m -517.2608m 
  552.00000p    2.0207   440.2365m -346.7051m -525.7310m 
  553.00000p    1.9395   435.6696m -346.2227m -534.2012m 
  554.00000p    1.8583   431.1027m -345.7403m -542.6714m 
  555.00000p    1.7772   426.5359m -345.2579m -551.1416m 
  556.00000p    1.6960   421.9690m -344.7755m -559.6117m 
  557.00000p    1.6148   417.4021m -344.2930m -568.0819m 
  558.00000p    1.5336   412.8352m -343.8106m -576.5521m 
  559.00000p    1.4524   408.2683m -343.3282m -585.0223m 
  560.00000p    1.3712   403.7015m -342.8458m -593.4925m 
  561.00000p    1.2901   399.1346m -342.3634m -601.9626m 
  562.00000p    1.2089   394.5677m -341.8810m -610.4328m 
  563.00000p    1.1277   390.0008m -341.3985m -618.9030m 
  564.00000p    1.0465   385.4340m -340.9161m -627.3732m 
  565.00000p  965.3174m  380.8671m -340.4337m -635.8434m 
  566.00000p  884.1336m  376.3002m -339.9513m -644.3135m 
  567.00000p  802.9498m  371.7333m -339.4689m -652.7837m 
  568.00000p  721.7660m  367.1665m -338.9865m -661.2539m 
  569.00000p  640.5822m  362.5996m -338.5040m -669.7241m 
  570.00000p  559.3984m  358.0327m -338.0216m -678.1943m 
  571.00000p  478.2146m  353.4658m -337.5392m -686.6644m 
  572.00000p  397.0308m  348.8990m -337.0568m -695.1346m 
  573.00000p  315.8470m  344.3321m -336.5744m -703.6048m 
  574.00000p  234.4472m  339.7124m -336.1051m -712.0452m 
  575.00000p  144.5569m  333.0176m -336.1528m -719.3138m 
  576.00000p   54.6666m  326.3228m -336.2005m -726.5825m 
  577.00000p  -35.2238m  319.6279m -336.2482m -733.8512m 
  578.00000p -125.1141m  312.9331m -336.2958m -741.1198m 
  579.00000p -215.0044m  306.2383m -336.3435m -748.3885m 
  580.00000p -304.8947m  299.5435m -336.3912m -755.6571m 
  581.00000p -394.7850m  292.8487m -336.4389m -762.9258m 
  582.00000p -484.6753m  286.1538m -336.4866m -770.1944m 
  583.00000p -574.5656m  279.4590m -336.5343m -777.4631m 
  584.00000p -664.4560m  272.7642m -336.5819m -784.7318m 
  585.00000p -754.3463m  266.0694m -336.6296m -792.0004m 
  586.00000p -861.6427m  258.7949m -336.8590m -797.5152m 
  587.00000p -978.0182m  251.2181m -337.1831m -802.1151m 
  588.00000p   -1.0944   243.6413m -337.5072m -806.7150m 
  589.00000p   -1.2108   236.0646m -337.8313m -811.3149m 
  590.00000p   -1.3271   228.4878m -338.1554m -815.9148m 
  591.00000p   -1.4435   220.9110m -338.4795m -820.5147m 
  592.00000p   -1.5599   213.3342m -338.8036m -825.1146m 
  593.00000p   -1.6763   205.7574m -339.1278m -829.7146m 
  594.00000p   -1.7926   198.1806m -339.4519m -834.3145m 
  595.00000p   -1.9090   190.6038m -339.7760m -838.9144m 
  596.00000p   -2.0254   183.0270m -340.1001m -843.5143m 
  597.00000p   -2.1418   175.4503m -340.4242m -848.1142m 
  598.00000p   -2.2581   167.8735m -340.7483m -852.7141m 
  599.00000p   -2.3745   160.2967m -341.0724m -857.3140m 
  600.00000p   -2.4909   152.7199m -341.3965m -861.9139m 
  601.00000p   -2.6414   159.7966m -322.5183m -842.1831m 
  602.00000p   -2.7919   166.8733m -303.6402m -822.4523m 
  603.00000p   -2.9423   173.9500m -284.7620m -802.7214m 
  604.00000p   -3.0928   181.0268m -265.8838m -782.9906m 
  605.00000p   -3.2433   188.1035m -247.0057m -763.2598m 
  606.00000p   -3.3938   195.1802m -228.1275m -743.5289m 
  607.00000p   -3.5442   202.2569m -209.2493m -723.7981m 
  608.00000p   -3.6947   209.3336m -190.3711m -704.0673m 
  609.00000p   -3.8452   216.4103m -171.4930m -684.3364m 
  610.00000p   -3.9957   223.4870m -152.6148m -664.6056m 
  611.00000p   -4.1461   230.5638m -133.7366m -644.8748m 
  612.00000p   -4.2966   237.6405m -114.8584m -625.1439m 
  613.00000p   -4.4471   244.7172m  -95.9803m -605.4131m 
  614.00000p   -4.5976   251.7939m  -77.1021m -585.6823m 
  615.00000p   -4.7480   258.8706m  -58.2239m -565.9514m 
  616.00000p   -4.8985   265.9473m  -39.3457m -546.2206m 
  617.00000p   -5.0490   273.0240m  -20.4676m -526.4898m 
  618.00000p   -5.1995   280.1008m   -1.5894m -506.7589m 
  619.00000p   -5.3499   287.1775m   17.2888m -487.0281m 
  620.00000p   -5.5004   294.2542m   36.1669m -467.2973m 
  621.00000p   -5.6509   301.3309m   55.0451m -447.5664m 
  622.00000p   -5.8014   308.4076m   73.9233m -427.8356m 
  623.00000p   -5.9518   315.4843m   92.8015m -408.1048m 
  624.00000p   -6.1044   321.6495m  111.7230m -387.7369m 
  625.00000p   -6.2587   327.0642m  130.6804m -366.8446m 
  626.00000p   -6.4130   332.4789m  149.6377m -345.9524m 
  627.00000p   -6.5673   337.8936m  168.5950m -325.0601m 
  628.00000p   -6.7216   343.3083m  187.5523m -304.1678m 
  629.00000p   -6.8759   348.7231m  206.5096m -283.2756m 
  630.00000p   -7.0302   354.1378m  225.4670m -262.3833m 
  631.00000p   -7.1845   359.5525m  244.4243m -241.4910m 
  632.00000p   -7.3388   364.9672m  263.3816m -220.5988m 
  633.00000p   -7.4931   370.3819m  282.3389m -199.7065m 
  634.00000p   -7.6212   362.7029m  293.6316m -179.9549m 
  635.00000p   -7.7462   353.4581m  304.0077m -160.3398m 
  636.00000p   -7.8712   344.2133m  314.3838m -140.7246m 
  637.00000p   -7.9962   334.9685m  324.7600m -121.1095m 
  638.00000p   -8.1212   325.7236m  335.1361m -101.4943m 
  639.00000p   -8.2461   316.4788m  345.5122m  -81.8792m 
  640.00000p   -8.3711   307.2340m  355.8883m  -62.2640m 
  641.00000p   -8.4961   297.9892m  366.2644m  -42.6489m 
  642.00000p   -8.6211   288.7444m  376.6406m  -23.0337m 
  643.00000p   -8.7461   279.4996m  387.0167m   -3.4185m 
  644.00000p   -8.8711   270.2548m  397.3928m   16.1966m 
  645.00000p   -8.9960   261.0100m  407.7689m   35.8118m 
  646.00000p   -9.1210   251.7652m  418.1451m   55.4269m 
  647.00000p   -9.2460   242.5204m  428.5212m   75.0421m 
  648.00000p   -9.3710   233.2756m  438.8973m   94.6572m 
  649.00000p   -9.4960   224.0307m  449.2734m  114.2724m 
  650.00000p   -9.6209   214.7859m  459.6496m  133.8875m 
  651.00000p   -9.7459   205.5411m  470.0257m  153.5027m 
  652.00000p   -9.8709   196.2963m  480.4018m  173.1179m 
  653.00000p   -9.9959   187.0515m  490.7779m  192.7330m 
  654.00000p  -10.1209   177.8067m  501.1541m  212.3482m 
  655.00000p  -10.2459   168.5619m  511.5302m  231.9633m 
  656.00000p  -10.3708   159.3171m  521.9063m  251.5785m 
  657.00000p  -10.4958   150.0723m  532.2824m  271.1936m 
  658.00000p  -10.6208   140.8275m  542.6586m  290.8088m 
  659.00000p  -10.7458   131.5827m  553.0347m  310.4239m 
  660.00000p  -10.8708   122.3378m  563.4108m  330.0391m 
  661.00000p  -10.9957   113.0930m  573.7869m  349.6542m 
  662.00000p  -11.1207   103.8482m  584.1631m  369.2694m 
  663.00000p  -11.2457    94.6034m  594.5392m  388.8846m 
  664.00000p  -11.3707    85.3586m  604.9153m  408.4997m 
  665.00000p  -11.3920    64.6783m  593.8321m  412.4088m 
  666.00000p  -11.4129    43.9554m  582.6690m  416.2595m 
  667.00000p  -11.4338    23.2325m  571.5059m  420.1101m 
  668.00000p  -11.4548     2.5096m  560.3428m  423.9608m 
  669.00000p  -11.4757   -18.2133m  549.1797m  427.8114m 
  670.00000p  -11.4966   -38.9362m  538.0166m  431.6621m 
  671.00000p  -11.5175   -59.6591m  526.8535m  435.5127m 
  672.00000p  -11.5385   -80.3820m  515.6904m  439.3634m 
  673.00000p  -11.5594  -101.1049m  504.5274m  443.2140m 
  674.00000p  -11.5803  -121.8278m  493.3643m  447.0647m 
  675.00000p  -11.6012  -142.5507m  482.2012m  450.9153m 
  676.00000p  -11.6222  -163.2735m  471.0381m  454.7660m 
  677.00000p  -11.6431  -183.9964m  459.8750m  458.6166m 
  678.00000p  -11.6640  -204.7193m  448.7119m  462.4673m 
  679.00000p  -11.6849  -225.4422m  437.5488m  466.3180m 
  680.00000p  -11.7059  -246.1651m  426.3857m  470.1686m 
  681.00000p  -11.7268  -266.8880m  415.2227m  474.0193m 
  682.00000p  -11.7477  -287.6109m  404.0596m  477.8699m 
  683.00000p  -11.7686  -308.3338m  392.8965m  481.7206m 
  684.00000p  -11.7896  -329.0567m  381.7334m  485.5712m 
  685.00000p  -11.8105  -349.7796m  370.5703m  489.4219m 
  686.00000p  -11.8314  -370.5025m  359.4072m  493.2725m 
  687.00000p  -11.8523  -391.2253m  348.2441m  497.1232m 
  688.00000p  -11.8733  -411.9482m  337.0810m  500.9738m 
  689.00000p  -11.8942  -432.6711m  325.9180m  504.8245m 
  690.00000p  -11.9151  -453.3940m  314.7549m  508.6751m 
  691.00000p  -11.9360  -474.1169m  303.5918m  512.5258m 
  692.00000p  -11.9570  -494.8398m  292.4287m  516.3764m 
  693.00000p  -11.9779  -515.5627m  281.2656m  520.2271m 
  694.00000p  -11.9988  -536.2856m  270.1025m  524.0778m 
  695.00000p  -12.0197  -557.0085m  258.9394m  527.9284m 
  696.00000p  -12.0407  -577.7314m  247.7763m  531.7791m 
  697.00000p  -12.0616  -598.4543m  236.6132m  535.6297m 
  698.00000p  -12.0825  -619.1772m  225.4502m  539.4804m 
  699.00000p  -12.1034  -639.9000m  214.2871m  543.3310m 
  700.00000p  -12.1244  -660.6229m  203.1240m  547.1817m 
  701.00000p  -12.1453  -681.3458m  191.9609m  551.0323m 
  702.00000p  -12.1662  -702.0687m  180.7978m  554.8830m 
  703.00000p  -12.1871  -722.7916m  169.6347m  558.7336m 
  704.00000p  -12.2081  -743.5145m  158.4716m  562.5843m 
  705.00000p  -12.2290  -764.2374m  147.3085m  566.4349m 
  706.00000p  -12.2499  -784.9603m  136.1455m  570.2856m 
  707.00000p  -12.2708  -805.6832m  124.9824m  574.1362m 
  708.00000p  -12.2918  -826.4061m  113.8193m  577.9869m 
  709.00000p  -12.3127  -847.1290m  102.6562m  581.8376m 
  710.00000p  -12.3336  -867.8519m   91.4931m  585.6882m 
  711.00000p  -12.3545  -888.5747m   80.3300m  589.5389m 
  712.00000p  -12.3279  -891.3356m   68.3114m  581.7541m 
  713.00000p  -12.2873  -888.7869m   56.0399m  570.5300m 
  714.00000p  -12.2466  -886.2381m   43.7684m  559.3058m 
  715.00000p  -12.2060  -883.6893m   31.4969m  548.0816m 
  716.00000p  -12.1653  -881.1406m   19.2254m  536.8574m 
  717.00000p  -12.1246  -878.5918m    6.9538m  525.6332m 
  718.00000p  -12.0840  -876.0430m   -5.3177m  514.4090m 
  719.00000p  -12.0433  -873.4943m  -17.5892m  503.1848m 
  720.00000p  -12.0027  -870.9455m  -29.8607m  491.9606m 
  721.00000p  -11.9620  -868.3967m  -42.1322m  480.7364m 
  722.00000p  -11.9213  -865.8479m  -54.4037m  469.5122m 
  723.00000p  -11.8807  -863.2992m  -66.6752m  458.2880m 
  724.00000p  -11.8400  -860.7504m  -78.9467m  447.0638m 
  725.00000p  -11.7994  -858.2016m  -91.2182m  435.8396m 
  726.00000p  -11.7587  -855.6529m -103.4898m  424.6155m 
  727.00000p  -11.7180  -853.1041m -115.7613m  413.3913m 
  728.00000p  -11.6774  -850.5553m -128.0328m  402.1671m 
  729.00000p  -11.6367  -848.0066m -140.3043m  390.9429m 
  730.00000p  -11.5961  -845.4578m -152.5758m  379.7187m 
  731.00000p  -11.5554  -842.9090m -164.8473m  368.4945m 
  732.00000p  -11.5147  -840.3603m -177.1188m  357.2703m 
  733.00000p  -11.4741  -837.8115m -189.3903m  346.0461m 
  734.00000p  -11.4334  -835.2627m -201.6619m  334.8219m 
  735.00000p  -11.3928  -832.7139m -213.9334m  323.5977m 
  736.00000p  -11.3521  -830.1652m -226.2049m  312.3735m 
  737.00000p  -11.3115  -827.6164m -238.4764m  301.1493m 
  738.00000p  -11.2708  -825.0676m -250.7479m  289.9251m 
  739.00000p  -11.2301  -822.5189m -263.0194m  278.7010m 
  740.00000p  -11.1895  -819.9701m -275.2909m  267.4768m 
  741.00000p  -11.1488  -817.4213m -287.5624m  256.2526m 
  742.00000p  -11.1082  -814.8726m -299.8339m  245.0284m 
  743.00000p  -11.0675  -812.3238m -312.1055m  233.8042m 
  744.00000p  -11.0268  -809.7750m -324.3770m  222.5800m 
  745.00000p  -10.9862  -807.2263m -336.6485m  211.3558m 
  746.00000p  -10.9455  -804.6775m -348.9200m  200.1316m 
  747.00000p  -10.9049  -802.1287m -361.1915m  188.9074m 
  748.00000p  -10.8642  -799.5800m -373.4630m  177.6832m 
  749.00000p  -10.8235  -797.0312m -385.7345m  166.4590m 
  750.00000p  -10.7829  -794.4824m -398.0060m  155.2348m 
  751.00000p  -10.7422  -791.9336m -410.2776m  144.0106m 
  752.00000p  -10.7016  -789.3849m -422.5491m  132.7865m 
  753.00000p  -10.6609  -786.8361m -434.8206m  121.5623m 
  754.00000p  -10.6202  -784.2873m -447.0921m  110.3381m 
  755.00000p  -10.5796  -781.7386m -459.3636m   99.1139m 
  756.00000p  -10.5389  -779.1898m -471.6351m   87.8897m 
  757.00000p  -10.4983  -776.6410m -483.9066m   76.6655m 
  758.00000p  -10.4576  -774.0923m -496.1781m   65.4413m 
  759.00000p  -10.4170  -771.5435m -508.4496m   54.2171m 
  760.00000p  -10.3763  -768.9947m -520.7212m   42.9929m 
  761.00000p  -10.3356  -766.4460m -532.9927m   31.7687m 
  762.00000p  -10.3136  -751.5510m -530.9802m   24.7290m 
  763.00000p  -10.2972  -733.0064m -524.7452m   18.9261m 
  764.00000p  -10.2807  -714.4618m -518.5103m   13.1233m 
  765.00000p  -10.2642  -695.9172m -512.2753m    7.3205m 
  766.00000p  -10.2477  -677.3726m -506.0404m    1.5176m 
  767.00000p  -10.2312  -658.8280m -499.8054m   -4.2852m 
  768.00000p  -10.2148  -640.2834m -493.5705m  -10.0880m 
  769.00000p  -10.1983  -621.7388m -487.3356m  -15.8908m 
  770.00000p  -10.1818  -603.1942m -481.1006m  -21.6937m 
  771.00000p  -10.1653  -584.6496m -474.8657m  -27.4965m 
  772.00000p  -10.1489  -566.1050m -468.6307m  -33.2993m 
  773.00000p  -10.1324  -547.5604m -462.3958m  -39.1022m 
  774.00000p  -10.1159  -529.0158m -456.1608m  -44.9050m 
  775.00000p  -10.0994  -510.4712m -449.9259m  -50.7078m 
  776.00000p  -10.0829  -491.9267m -443.6909m  -56.5106m 
  777.00000p  -10.0665  -473.3821m -437.4560m  -62.3135m 
  778.00000p  -10.0500  -454.8375m -431.2211m  -68.1163m 
  779.00000p  -10.0335  -436.2929m -424.9861m  -73.9191m 
  780.00000p  -10.0170  -417.7483m -418.7512m  -79.7220m 
  781.00000p  -10.0006  -399.2037m -412.5162m  -85.5248m 
  782.00000p   -9.9841  -380.6591m -406.2813m  -91.3276m 
  783.00000p   -9.9676  -362.1145m -400.0463m  -97.1304m 
  784.00000p   -9.9511  -343.5699m -393.8114m -102.9333m 
  785.00000p   -9.9346  -325.0253m -387.5764m -108.7361m 
  786.00000p   -9.9182  -306.4807m -381.3415m -114.5389m 
  787.00000p   -9.9017  -287.9361m -375.1066m -120.3418m 
  788.00000p   -9.8852  -269.3915m -368.8716m -126.1446m 
  789.00000p   -9.8687  -250.8469m -362.6367m -131.9474m 
  790.00000p   -9.8523  -232.3023m -356.4017m -137.7502m 
  791.00000p   -9.8358  -213.7577m -350.1668m -143.5531m 
  792.00000p   -9.8193  -195.2131m -343.9318m -149.3559m 
  793.00000p   -9.8028  -176.6686m -337.6969m -155.1587m 
  794.00000p   -9.7863  -158.1240m -331.4620m -160.9615m 
  795.00000p   -9.7699  -139.5794m -325.2270m -166.7644m 
  796.00000p   -9.7534  -121.0348m -318.9921m -172.5672m 
  797.00000p   -9.7369  -102.4902m -312.7571m -178.3700m 
  798.00000p   -9.7204   -83.9456m -306.5222m -184.1729m 
  799.00000p   -9.7039   -65.4010m -300.2872m -189.9757m 
  800.00000p   -9.6875   -46.8564m -294.0523m -195.7785m 
  801.00000p   -9.6710   -28.3118m -287.8173m -201.5813m 
  802.00000p   -9.6545    -9.7672m -281.5824m -207.3842m 
  803.00000p   -9.6380     8.7774m -275.3475m -213.1870m 
  804.00000p   -9.6216    27.3220m -269.1125m -218.9898m 
  805.00000p   -9.6051    45.8666m -262.8776m -224.7927m 
  806.00000p   -9.5886    64.4112m -256.6426m -230.5955m 
  807.00000p   -9.5721    82.9558m -250.4077m -236.3983m 
  808.00000p   -9.5556   101.5004m -244.1727m -242.2011m 
  809.00000p   -9.5392   120.0450m -237.9378m -248.0040m 
  810.00000p   -9.5227   138.5895m -231.7028m -253.8068m 
  811.00000p   -9.5062   157.1341m -225.4679m -259.6096m 
  812.00000p   -9.5024   165.9298m -217.9906m -259.7055m 
  813.00000p   -9.5024   171.8436m -210.1460m -258.1143m 
  814.00000p   -9.5024   177.7574m -202.3014m -256.5231m 
  815.00000p   -9.5024   183.6713m -194.4569m -254.9319m 
  816.00000p   -9.5024   189.5851m -186.6123m -253.3408m 
  817.00000p   -9.5024   195.4989m -178.7677m -251.7496m 
  818.00000p   -9.5024   201.4127m -170.9231m -250.1584m 
  819.00000p   -9.5024   207.3265m -163.0786m -248.5672m 
  820.00000p   -9.5024   213.2403m -155.2340m -246.9761m 
  821.00000p   -9.5024   219.1542m -147.3894m -245.3849m 
  822.00000p   -9.5024   225.0680m -139.5448m -243.7937m 
  823.00000p   -9.5024   230.9818m -131.7003m -242.2025m 
  824.00000p   -9.5024   236.8956m -123.8557m -240.6114m 
  825.00000p   -9.5024   242.8094m -116.0111m -239.0202m 
  826.00000p   -9.5024   248.7232m -108.1666m -237.4290m 
  827.00000p   -9.5024   254.6371m -100.3220m -235.8378m 
  828.00000p   -9.5024   260.5509m  -92.4774m -234.2467m 
  829.00000p   -9.5024   266.4647m  -84.6328m -232.6555m 
  830.00000p   -9.5023   272.3785m  -76.7883m -231.0643m 
  831.00000p   -9.5023   278.2923m  -68.9437m -229.4731m 
  832.00000p   -9.5023   284.2062m  -61.0991m -227.8820m 
  833.00000p   -9.5023   290.1200m  -53.2545m -226.2908m 
  834.00000p   -9.5023   296.0338m  -45.4100m -224.6996m 
  835.00000p   -9.5023   301.9476m  -37.5654m -223.1084m 
  836.00000p   -9.5023   307.8614m  -29.7208m -221.5173m 
  837.00000p   -9.5023   313.7752m  -21.8762m -219.9261m 
  838.00000p   -9.5023   319.6891m  -14.0317m -218.3349m 
  839.00000p   -9.5023   325.6029m   -6.1871m -216.7437m 
  840.00000p   -9.5023   331.5167m    1.6575m -215.1526m 
  841.00000p   -9.5023   337.4305m    9.5020m -213.5614m 
  842.00000p   -9.5023   343.3443m   17.3466m -211.9702m 
  843.00000p   -9.5023   349.2582m   25.1912m -210.3790m 
  844.00000p   -9.5023   355.1720m   33.0358m -208.7879m 
  845.00000p   -9.5023   361.0858m   40.8803m -207.1967m 
  846.00000p   -9.5023   366.9996m   48.7249m -205.6055m 
  847.00000p   -9.5023   372.9134m   56.5695m -204.0143m 
  848.00000p   -9.5022   378.8272m   64.4141m -202.4232m 
  849.00000p   -9.5022   384.7411m   72.2586m -200.8320m 
  850.00000p   -9.5022   390.6549m   80.1032m -199.2408m 
  851.00000p   -9.5022   396.5687m   87.9478m -197.6496m 
  852.00000p   -9.5022   402.4825m   95.7924m -196.0585m 
  853.00000p   -9.5022   408.3963m  103.6369m -194.4673m 
  854.00000p   -9.5022   414.3102m  111.4815m -192.8761m 
  855.00000p   -9.5022   420.2240m  119.3261m -191.2849m 
  856.00000p   -9.5022   426.1378m  127.1706m -189.6937m 
  857.00000p   -9.5022   432.0516m  135.0152m -188.1026m 
  858.00000p   -9.5022   437.9654m  142.8598m -186.5114m 
  859.00000p   -9.5022   443.8792m  150.7044m -184.9202m 
  860.00000p   -9.5022   449.7931m  158.5489m -183.3290m 
  861.00000p   -9.5022   455.7069m  166.3935m -181.7379m 
  862.00000p   -9.5101   455.2725m  170.8419m -178.1762m 
  863.00000p   -9.5204   452.9616m  174.2864m -174.0321m 
  864.00000p   -9.5306   450.6506m  177.7308m -169.8880m 
  865.00000p   -9.5409   448.3397m  181.1753m -165.7439m 
  866.00000p   -9.5512   446.0288m  184.6197m -161.5998m 
  867.00000p   -9.5615   443.7178m  188.0642m -157.4557m 
  868.00000p   -9.5717   441.4069m  191.5086m -153.3115m 
  869.00000p   -9.5820   439.0960m  194.9531m -149.1674m 
  870.00000p   -9.5923   436.7851m  198.3975m -145.0233m 
  871.00000p   -9.6025   434.4741m  201.8420m -140.8792m 
  872.00000p   -9.6128   432.1632m  205.2864m -136.7351m 
  873.00000p   -9.6231   429.8523m  208.7309m -132.5909m 
  874.00000p   -9.6333   427.5413m  212.1753m -128.4468m 
  875.00000p   -9.6436   425.2304m  215.6198m -124.3027m 
  876.00000p   -9.6539   422.9195m  219.0643m -120.1586m 
  877.00000p   -9.6642   420.6085m  222.5087m -116.0145m 
  878.00000p   -9.6744   418.2976m  225.9532m -111.8704m 
  879.00000p   -9.6847   415.9867m  229.3976m -107.7262m 
  880.00000p   -9.6950   413.6757m  232.8421m -103.5821m 
  881.00000p   -9.7052   411.3648m  236.2865m  -99.4380m 
  882.00000p   -9.7155   409.0539m  239.7310m  -95.2939m 
  883.00000p   -9.7258   406.7429m  243.1754m  -91.1498m 
  884.00000p   -9.7361   404.4320m  246.6199m  -87.0057m 
  885.00000p   -9.7463   402.1211m  250.0643m  -82.8615m 
  886.00000p   -9.7566   399.8101m  253.5088m  -78.7174m 
  887.00000p   -9.7669   397.4992m  256.9533m  -74.5733m 
  888.00000p   -9.7771   395.1883m  260.3977m  -70.4292m 
  889.00000p   -9.7874   392.8773m  263.8422m  -66.2851m 
  890.00000p   -9.7977   390.5664m  267.2866m  -62.1410m 
  891.00000p   -9.8079   388.2555m  270.7311m  -57.9968m 
  892.00000p   -9.8182   385.9445m  274.1755m  -53.8527m 
  893.00000p   -9.8285   383.6336m  277.6200m  -49.7086m 
  894.00000p   -9.8388   381.3227m  281.0644m  -45.5645m 
  895.00000p   -9.8490   379.0117m  284.5089m  -41.4204m 
  896.00000p   -9.8593   376.7008m  287.9533m  -37.2763m 
  897.00000p   -9.8696   374.3899m  291.3978m  -33.1321m 
  898.00000p   -9.8798   372.0789m  294.8423m  -28.9880m 
  899.00000p   -9.8901   369.7680m  298.2867m  -24.8439m 
  900.00000p   -9.9004   367.4571m  301.7312m  -20.6998m 
  901.00000p   -9.8538   369.2078m  311.3267m   -2.1353m 
  902.00000p   -9.8071   370.9585m  320.9222m   16.4291m 
  903.00000p   -9.7605   372.7092m  330.5177m   34.9936m 
  904.00000p   -9.7139   374.4600m  340.1132m   53.5581m 
  905.00000p   -9.6673   376.2107m  349.7087m   72.1225m 
  906.00000p   -9.6207   377.9614m  359.3042m   90.6870m 
  907.00000p   -9.5740   379.7121m  368.8997m  109.2514m 
  908.00000p   -9.5274   381.4629m  378.4953m  127.8159m 
  909.00000p   -9.4808   383.2136m  388.0908m  146.3804m 
  910.00000p   -9.4342   384.9643m  397.6863m  164.9448m 
  911.00000p   -9.3876   386.7150m  407.2818m  183.5093m 
  912.00000p   -9.3409   388.4657m  416.8773m  202.0738m 
  913.00000p   -9.2943   390.2165m  426.4728m  220.6382m 
  914.00000p   -9.2477   391.9672m  436.0683m  239.2027m 
  915.00000p   -9.2011   393.7179m  445.6638m  257.7672m 
  916.00000p   -9.1544   395.4686m  455.2594m  276.3316m 
  917.00000p   -9.1078   397.2193m  464.8549m  294.8961m 
  918.00000p   -9.0612   398.9701m  474.4504m  313.4605m 
  919.00000p   -9.0146   400.7208m  484.0459m  332.0250m 
  920.00000p   -8.9680   402.4715m  493.6414m  350.5895m 
  921.00000p   -8.9213   404.2222m  503.2369m  369.1539m 
  922.00000p   -8.8747   405.9730m  512.8324m  387.7184m 
  923.00000p   -8.8281   407.7237m  522.4279m  406.2829m 
  924.00000p   -8.7815   409.4744m  532.0235m  424.8473m 
  925.00000p   -8.7349   411.2251m  541.6190m  443.4118m 
  926.00000p   -8.6754   410.7112m  548.3627m  460.3390m 
  927.00000p   -8.6159   410.1974m  555.1065m  477.2663m 
  928.00000p   -8.5565   409.6835m  561.8502m  494.1935m 
  929.00000p   -8.4970   409.1696m  568.5940m  511.1208m 
  930.00000p   -8.4376   408.6557m  575.3377m  528.0480m 
  931.00000p   -8.3781   408.1418m  582.0814m  544.9752m 
  932.00000p   -8.3186   407.6279m  588.8252m  561.9025m 
  933.00000p   -8.2592   407.1141m  595.5689m  578.8297m 
  934.00000p   -8.1997   406.6002m  602.3127m  595.7570m 
  935.00000p   -8.1402   406.0863m  609.0564m  612.6842m 
  936.00000p   -8.0808   405.5724m  615.8002m  629.6115m 
  937.00000p   -8.0054   402.7768m  619.3893m  644.1561m 
  938.00000p   -7.9140   397.7001m  619.8247m  656.3188m 
  939.00000p   -7.8227   392.6233m  620.2601m  668.4815m 
  940.00000p   -7.7314   387.5466m  620.6955m  680.6442m 
  941.00000p   -7.6401   382.4699m  621.1309m  692.8069m 
  942.00000p   -7.5487   377.3931m  621.5663m  704.9696m 
  943.00000p   -7.4574   372.3164m  622.0017m  717.1323m 
  944.00000p   -7.3661   367.2397m  622.4371m  729.2950m 
  945.00000p   -7.2747   362.1630m  622.8725m  741.4576m 
  946.00000p   -7.1834   357.0862m  623.3079m  753.6203m 
  947.00000p   -7.0921   352.0095m  623.7433m  765.7830m 
  948.00000p   -7.0007   346.9328m  624.1787m  777.9457m 
  949.00000p   -6.9094   341.8560m  624.6140m  790.1084m 
  950.00000p   -6.8181   336.7793m  625.0494m  802.2711m 
  951.00000p   -6.6872   317.3618m  602.3919m  786.7478m 
  952.00000p   -6.5563   297.9444m  579.7343m  771.2244m 
  953.00000p   -6.4254   278.5269m  557.0768m  755.7011m 
  954.00000p   -6.2945   259.1094m  534.4192m  740.1778m 
  955.00000p   -6.1636   239.6920m  511.7617m  724.6545m 
  956.00000p   -6.0327   220.2745m  489.1041m  709.1311m 
  957.00000p   -5.9018   200.8570m  466.4466m  693.6078m 
  958.00000p   -5.7709   181.4395m  443.7890m  678.0845m 
  959.00000p   -5.6401   162.0221m  421.1315m  662.5611m 
  960.00000p   -5.5092   142.6046m  398.4739m  647.0378m 
  961.00000p   -5.3783   123.1871m  375.8164m  631.5145m 
  962.00000p   -5.2474   103.7697m  353.1588m  615.9912m 
  963.00000p   -5.1165    84.3522m  330.5012m  600.4678m 
  964.00000p   -4.9856    64.9347m  307.8437m  584.9445m 
  965.00000p   -4.8547    45.5172m  285.1861m  569.4212m 
  966.00000p   -4.7238    26.0998m  262.5286m  553.8979m 
  967.00000p   -4.5929     6.6823m  239.8710m  538.3745m 
  968.00000p   -4.4620   -12.7352m  217.2135m  522.8512m 
  969.00000p   -4.3311   -32.1526m  194.5559m  507.3279m 
  970.00000p   -4.2002   -51.5701m  171.8984m  491.8045m 
  971.00000p   -4.0693   -70.9876m  149.2408m  476.2812m 
  972.00000p   -3.9361   -89.6734m  126.4978m  460.1627m 
  973.00000p   -3.7994  -107.2611m  103.6265m  443.1508m 
  974.00000p   -3.6627  -124.8488m   80.7553m  426.1390m 
  975.00000p   -3.5260  -142.4365m   57.8840m  409.1272m 
  976.00000p   -3.3893  -160.0242m   35.0127m  392.1154m 
  977.00000p   -3.2526  -177.6120m   12.1415m  375.1036m 
  978.00000p   -3.1159  -195.1997m  -10.7298m  358.0918m 
  979.00000p   -2.9792  -212.7874m  -33.6011m  341.0800m 
  980.00000p   -2.8425  -230.3751m  -56.4723m  324.0682m 
  981.00000p   -2.7057  -247.9629m  -79.3436m  307.0564m 
  982.00000p   -2.5724  -255.0679m  -98.9194m  288.2714m 
  983.00000p   -2.4393  -261.5387m -118.2959m  269.3790m 
  984.00000p   -2.3062  -268.0095m -137.6723m  250.4867m 
  985.00000p   -2.1730  -274.4804m -157.0488m  231.5944m 
  986.00000p   -2.0399  -280.9512m -176.4252m  212.7020m 
  987.00000p   -1.9068  -287.4220m -195.8017m  193.8097m 
  988.00000p   -1.7737  -293.8928m -215.1781m  174.9173m 
  989.00000p   -1.6405  -300.3636m -234.5545m  156.0250m 
  990.00000p   -1.5074  -306.8345m -253.9310m  137.1327m 
  991.00000p   -1.3743  -313.3053m -273.3074m  118.2403m 
  992.00000p   -1.2412  -319.7761m -292.6839m   99.3480m 
  993.00000p   -1.1080  -326.2469m -312.0603m   80.4557m 
  994.00000p -974.9183m -332.7177m -331.4368m   61.5633m 
  995.00000p -841.7937m -339.1885m -350.8132m   42.6710m 
  996.00000p -708.6690m -345.6594m -370.1897m   23.7786m 
  997.00000p -575.5444m -352.1302m -389.5661m    4.8863m 
  998.00000p -442.4198m -358.6010m -408.9425m  -14.0060m 
  999.00000p -309.2951m -365.0718m -428.3190m  -32.8984m 
    1.00000n -176.1705m -371.5426m -447.6954m  -51.7907m 
y
x

 time         voltage    voltage    voltage    voltage   
             tdn5a9     tdn6a9     tdn7a9     tdn8a9     
    0.          0.         0.         0.         0.      
    1.00000p    0.         0.         0.         0.      
    2.00000p    0.         0.         0.         0.      
    3.00000p    0.         0.         0.         0.      
    4.00000p    0.         0.         0.         0.      
    5.00000p    0.         0.         0.         0.      
    6.00000p    0.         0.         0.         0.      
    7.00000p    0.         0.         0.         0.      
    8.00000p    0.         0.         0.         0.      
    9.00000p    0.         0.         0.         0.      
   10.00000p    0.         0.         0.         0.      
   11.00000p    0.         0.         0.         0.      
   12.00000p    0.         0.         0.         0.      
   13.00000p    0.         0.         0.         0.      
   14.00000p    0.         0.         0.         0.      
   15.00000p    0.         0.         0.         0.      
   16.00000p    0.         0.         0.         0.      
   17.00000p    0.         0.         0.         0.      
   18.00000p    0.         0.         0.         0.      
   19.00000p    0.         0.         0.         0.      
   20.00000p    0.         0.         0.         0.      
   21.00000p    0.         0.         0.         0.      
   22.00000p    0.         0.         0.         0.      
   23.00000p    0.         0.         0.         0.      
   24.00000p    0.         0.         0.         0.      
   25.00000p    0.         0.         0.         0.      
   26.00000p    0.         0.         0.         0.      
   27.00000p    0.         0.         0.         0.      
   28.00000p    0.         0.         0.         0.      
   29.00000p    0.         0.         0.         0.      
   30.00000p    0.         0.         0.         0.      
   31.00000p    0.         0.         0.         0.      
   32.00000p    0.         0.         0.         0.      
   33.00000p    0.         0.         0.         0.      
   34.00000p    0.         0.         0.         0.      
   35.00000p    0.         0.         0.         0.      
   36.00000p    0.         0.         0.         0.      
   37.00000p    0.         0.         0.         0.      
   38.00000p    0.         0.         0.         0.      
   39.00000p    0.         0.         0.         0.      
   40.00000p    0.         0.         0.         0.      
   41.00000p    0.         0.         0.         0.      
   42.00000p    0.         0.         0.         0.      
   43.00000p    0.         0.         0.         0.      
   44.00000p    0.         0.         0.         0.      
   45.00000p    0.         0.         0.         0.      
   46.00000p    0.         0.         0.         0.      
   47.00000p    0.         0.         0.         0.      
   48.00000p    0.         0.         0.         0.      
   49.00000p    0.         0.         0.         0.      
   50.00000p    0.         0.         0.         0.      
   51.00000p  -17.3272m  -17.3270m  -17.3314m  -17.3524m 
   52.00000p  -34.6543m  -34.6539m  -34.6629m  -34.7048m 
   53.00000p  -51.9815m  -51.9809m  -51.9943m  -52.0573m 
   54.00000p  -69.3087m  -69.3078m  -69.3257m  -69.4097m 
   55.00000p  -86.6358m  -86.6348m  -86.6571m  -86.7621m 
   56.00000p -103.9630m -103.9617m -103.9886m -104.1145m 
   57.00000p -121.2902m -121.2887m -121.3200m -121.4670m 
   58.00000p -138.9175m -138.9208m -138.9656m -139.1638m 
   59.00000p -156.8449m -156.8580m -156.9255m -157.2050m 
   60.00000p -174.7723m -174.7952m -174.8854m -175.2463m 
   61.00000p -192.6997m -192.7324m -192.8453m -193.2875m 
   62.00000p -210.6272m -210.6696m -210.8052m -211.3288m 
   63.00000p -228.5546m -228.6067m -228.7651m -229.3700m 
   64.00000p -246.4820m -246.5439m -246.7250m -247.4113m 
   65.00000p -264.4095m -264.4811m -264.6849m -265.4525m 
   66.00000p -282.3369m -282.4183m -282.6447m -283.4937m 
   67.00000p -300.2643m -300.3555m -300.6046m -301.5350m 
   68.00000p -318.1917m -318.2927m -318.5645m -319.5762m 
   69.00000p -336.1192m -336.2299m -336.5244m -337.6175m 
   70.00000p -354.0466m -354.1671m -354.4843m -355.6587m 
   71.00000p -371.9740m -372.1043m -372.4442m -373.7000m 
   72.00000p -389.9015m -390.0415m -390.4041m -391.7412m 
   73.00000p -407.8289m -407.9787m -408.3640m -409.7825m 
   74.00000p -425.2320m -425.6815m -426.1737m -427.5589m 
   75.00000p -442.2797m -443.2254m -443.8816m -445.1558m 
   76.00000p -459.3273m -460.7693m -461.5895m -462.7527m 
   77.00000p -476.3749m -478.3131m -479.2974m -480.3495m 
   78.00000p -493.4226m -495.8570m -497.0053m -497.9464m 
   79.00000p -510.4702m -513.4008m -514.7132m -515.5433m 
   80.00000p -527.5178m -530.9447m -532.4210m -533.1401m 
   81.00000p -544.5654m -548.4885m -550.1289m -550.7370m 
   82.00000p -561.6131m -566.0324m -567.8368m -568.3339m 
   83.00000p -578.6607m -583.5763m -585.5447m -585.9308m 
   84.00000p -595.7083m -601.1201m -603.2526m -603.5276m 
   85.00000p -612.7560m -618.6640m -620.9605m -621.1245m 
   86.00000p -629.8036m -636.2078m -638.6684m -638.7214m 
   87.00000p -646.8512m -653.7517m -656.3763m -656.3183m 
   88.00000p -663.8988m -671.2956m -674.0842m -673.9151m 
   89.00000p -680.9465m -688.8394m -691.7921m -691.5120m 
   90.00000p -697.9941m -706.3833m -709.5000m -709.1089m 
   91.00000p -715.0417m -723.9271m -727.2079m -726.7057m 
   92.00000p -732.0894m -741.4710m -744.9158m -744.3026m 
   93.00000p -749.1370m -759.0148m -762.6237m -761.8995m 
   94.00000p -766.1846m -776.5587m -780.3315m -779.4964m 
   95.00000p -783.2322m -794.1026m -798.0394m -797.0932m 
   96.00000p -800.2799m -811.6464m -815.7473m -814.6901m 
   97.00000p -817.3275m -829.1903m -833.4552m -832.2870m 
   98.00000p -834.3751m -846.7341m -851.1631m -849.8839m 
   99.00000p -851.4227m -864.2780m -868.8710m -867.4807m 
  100.00000p -868.4704m -881.8218m -886.5789m -885.0776m 
  101.00000p -859.0420m -874.9323m -880.4595m -877.7110m 
  102.00000p -849.6136m -868.0427m -874.3402m -870.3444m 
  103.00000p -840.1852m -861.1531m -868.2208m -862.9779m 
  104.00000p -830.7568m -854.2635m -862.1014m -855.6113m 
  105.00000p -821.3284m -847.3739m -855.9821m -848.2447m 
  106.00000p -811.9000m -840.4844m -849.8627m -840.8781m 
  107.00000p -802.4716m -833.5948m -843.7433m -833.5115m 
  108.00000p -793.0432m -826.7052m -837.6240m -826.1450m 
  109.00000p -783.6149m -819.8156m -831.5046m -818.7784m 
  110.00000p -774.1865m -812.9260m -825.3852m -811.4118m 
  111.00000p -764.7581m -806.0365m -819.2659m -804.0452m 
  112.00000p -755.3297m -799.1469m -813.1465m -796.6786m 
  113.00000p -745.9013m -792.2573m -807.0271m -789.3121m 
  114.00000p -736.4729m -785.3677m -800.9078m -781.9455m 
  115.00000p -727.0445m -778.4781m -794.7884m -774.5789m 
  116.00000p -717.6161m -771.5886m -788.6690m -767.2123m 
  117.00000p -708.1877m -764.6990m -782.5497m -759.8457m 
  118.00000p -698.7593m -757.8094m -776.4303m -752.4792m 
  119.00000p -689.3309m -750.9198m -770.3109m -745.1126m 
  120.00000p -679.9025m -744.0302m -764.1916m -737.7460m 
  121.00000p -668.5316m -735.4935m -756.5404m -728.7343m 
  122.00000p -656.6055m -726.4861m -748.4516m -719.2526m 
  123.00000p -644.6795m -717.4787m -740.3628m -709.7708m 
  124.00000p -632.7535m -708.4713m -732.2739m -700.2891m 
  125.00000p -620.8275m -699.4638m -724.1851m -690.8074m 
  126.00000p -608.9014m -690.4564m -716.0963m -681.3256m 
  127.00000p -596.9754m -681.4490m -708.0075m -671.8439m 
  128.00000p -585.0494m -672.4416m -699.9187m -662.3622m 
  129.00000p -573.1233m -663.4342m -691.8298m -652.8804m 
  130.00000p -561.1973m -654.4268m -683.7410m -643.3987m 
  131.00000p -549.2713m -645.4194m -675.6522m -633.9169m 
  132.00000p -534.7305m -633.2194m -664.3707m -621.8994m 
  133.00000p -517.0522m -617.1884m -649.2580m -606.8388m 
  134.00000p -499.3738m -601.1574m -634.1453m -591.7782m 
  135.00000p -481.6954m -585.1265m -619.0326m -576.7176m 
  136.00000p -464.0170m -569.0955m -603.9199m -561.6570m 
  137.00000p -446.3386m -553.0645m -588.8072m -546.5964m 
  138.00000p -428.6603m -537.0335m -573.6945m -531.5358m 
  139.00000p -410.9819m -521.0025m -558.5818m -516.4752m 
  140.00000p -393.3035m -504.9715m -543.4690m -501.4146m 
  141.00000p -375.6251m -488.9405m -528.3563m -486.3541m 
  142.00000p -357.9467m -472.9095m -513.2436m -471.2935m 
  143.00000p -340.2684m -456.8786m -498.1309m -456.2329m 
  144.00000p -322.5900m -440.8476m -483.0182m -441.1723m 
  145.00000p -304.9116m -424.8166m -467.9055m -426.1117m 
  146.00000p -287.2332m -408.7856m -452.7928m -411.0511m 
  147.00000p -269.5548m -392.7546m -437.6801m -395.9905m 
  148.00000p -251.8765m -376.7236m -422.5674m -380.9299m 
  149.00000p -234.1981m -360.6926m -407.4547m -365.8694m 
  150.00000p -216.5197m -344.6617m -392.3420m -350.8088m 
  151.00000p -198.8413m -328.6307m -377.2293m -335.7482m 
  152.00000p -181.1629m -312.5997m -362.1165m -320.6876m 
  153.00000p -163.4846m -296.5687m -347.0038m -305.6270m 
  154.00000p -145.8062m -280.5377m -331.8911m -290.5664m 
  155.00000p -128.1278m -264.5067m -316.7784m -275.5058m 
  156.00000p -110.4494m -248.4757m -301.6657m -260.4452m 
  157.00000p  -92.7710m -232.4447m -286.5530m -245.3846m 
  158.00000p  -75.0927m -216.4138m -271.4403m -230.3241m 
  159.00000p  -57.4143m -200.3828m -256.3276m -215.2635m 
  160.00000p  -39.7359m -184.3518m -241.2149m -200.2029m 
  161.00000p  -22.0575m -168.3208m -226.1022m -185.1423m 
  162.00000p   -4.3791m -152.2898m -210.9895m -170.0817m 
  163.00000p   13.2992m -136.2588m -195.8768m -155.0211m 
  164.00000p   30.9776m -120.2278m -180.7641m -139.9605m 
  165.00000p   48.6560m -104.1969m -165.6513m -124.8999m 
  166.00000p   66.3344m  -88.1659m -150.5386m -109.8393m 
  167.00000p   84.0128m  -72.1349m -135.4259m  -94.7788m 
  168.00000p  100.6546m  -55.9659m -119.8191m  -79.8363m 
  169.00000p  113.6264m  -39.3083m -102.4628m  -65.3119m 
  170.00000p  126.5981m  -22.6508m  -85.1065m  -50.7875m 
  171.00000p  139.5699m   -5.9932m  -67.7501m  -36.2631m 
  172.00000p  152.5416m   10.6644m  -50.3938m  -21.7387m 
  173.00000p  165.5134m   27.3219m  -33.0375m   -7.2143m 
  174.00000p  178.4851m   43.9795m  -15.6812m    7.3100m 
  175.00000p  191.4569m   60.6371m    1.6751m   21.8344m 
  176.00000p  204.4287m   77.2946m   19.0314m   36.3588m 
  177.00000p  217.4004m   93.9522m   36.3878m   50.8832m 
  178.00000p  230.3722m  110.6098m   53.7441m   65.4076m 
  179.00000p  243.3439m  127.2673m   71.1004m   79.9320m 
  180.00000p  256.3157m  143.9249m   88.4567m   94.4563m 
  181.00000p  269.2874m  160.5824m  105.8130m  108.9807m 
  182.00000p  282.2592m  177.2400m  123.1694m  123.5051m 
  183.00000p  295.2310m  193.8976m  140.5257m  138.0295m 
  184.00000p  308.2027m  210.5551m  157.8820m  152.5539m 
  185.00000p  321.1745m  227.2127m  175.2383m  167.0783m 
  186.00000p  334.1462m  243.8703m  192.5946m  181.6026m 
  187.00000p  347.1180m  260.5278m  209.9509m  196.1270m 
  188.00000p  360.0898m  277.1854m  227.3073m  210.6514m 
  189.00000p  373.0615m  293.8430m  244.6636m  225.1758m 
  190.00000p  386.0333m  310.5005m  262.0199m  239.7002m 
  191.00000p  399.0050m  327.1581m  279.3762m  254.2246m 
  192.00000p  411.9768m  343.8157m  296.7325m  268.7489m 
  193.00000p  424.9485m  360.4732m  314.0888m  283.2733m 
  194.00000p  437.9203m  377.1308m  331.4452m  297.7977m 
  195.00000p  450.8921m  393.7884m  348.8015m  312.3221m 
  196.00000p  463.8638m  410.4459m  366.1578m  326.8465m 
  197.00000p  476.8356m  427.1035m  383.5141m  341.3709m 
  198.00000p  489.8073m  443.7611m  400.8704m  355.8952m 
  199.00000p  502.7791m  460.4186m  418.2268m  370.4196m 
  200.00000p  515.7508m  477.0762m  435.5831m  384.9440m 
  201.00000p  528.7226m  493.7338m  452.9394m  399.4684m 
  202.00000p  541.6944m  510.3913m  470.2957m  413.9928m 
  203.00000p  554.6661m  527.0489m  487.6520m  428.5172m 
  204.00000p  567.6379m  543.7064m  505.0083m  443.0415m 
  205.00000p  580.6096m  560.3640m  522.3647m  457.5659m 
  206.00000p  593.5814m  577.0216m  539.7210m  472.0903m 
  207.00000p  606.5532m  593.6791m  557.0773m  486.6147m 
  208.00000p  619.5249m  610.3367m  574.4336m  501.1391m 
  209.00000p  632.4967m  626.9943m  591.7899m  515.6635m 
  210.00000p  645.4684m  643.6518m  609.1463m  530.1878m 
  211.00000p  654.3208m  656.3113m  622.7174m  541.2642m 
  212.00000p  650.3847m  656.5588m  624.5377m  541.6364m 
  213.00000p  646.4485m  656.8063m  626.3580m  542.0087m 
  214.00000p  642.5124m  657.0537m  628.1782m  542.3809m 
  215.00000p  638.5763m  657.3012m  629.9985m  542.7531m 
  216.00000p  634.6402m  657.5487m  631.8188m  543.1254m 
  217.00000p  630.7041m  657.7962m  633.6391m  543.4976m 
  218.00000p  626.7680m  658.0437m  635.4594m  543.8698m 
  219.00000p  622.8319m  658.2912m  637.2797m  544.2421m 
  220.00000p  618.8958m  658.5387m  639.1000m  544.6143m 
  221.00000p  614.9596m  658.7862m  640.9202m  544.9865m 
  222.00000p  611.0235m  659.0336m  642.7405m  545.3587m 
  223.00000p  607.0874m  659.2811m  644.5608m  545.7310m 
[...]
  692.00000p  -17.0890m   62.7220m   88.9143m   -9.8340  
  693.00000p  -14.8629m   65.1546m   90.9336m   -9.8520  
  694.00000p  -12.6368m   67.5872m   92.9529m   -9.8701  
  695.00000p  -10.4106m   70.0197m   94.9722m   -9.8881  
  696.00000p   -8.1845m   72.4523m   96.9915m   -9.9062  
  697.00000p   -5.9584m   74.8848m   99.0108m   -9.9242  
  698.00000p   -3.7322m   77.3174m  101.0301m   -9.9422  
  699.00000p   -1.5061m   79.7500m  103.0494m   -9.9603  
  700.00000p  720.0556u   82.1825m  105.0687m   -9.9783  
  701.00000p    2.9462m   84.6151m  107.0880m   -9.9963  
  702.00000p    5.1723m   87.0477m  109.1073m  -10.0144  
  703.00000p    7.3985m   89.4802m  111.1266m  -10.0324  
  704.00000p    9.6246m   91.9128m  113.1459m  -10.0504  
  705.00000p   11.8507m   94.3453m  115.1652m  -10.0685  
  706.00000p   14.0769m   96.7779m  117.1845m  -10.0865  
  707.00000p   16.3030m   99.2105m  119.2039m  -10.1046  
  708.00000p   18.5291m  101.6430m  121.2232m  -10.1226  
  709.00000p   20.7553m  104.0756m  123.2425m  -10.1406  
  710.00000p   22.9814m  106.5081m  125.2618m  -10.1587  
  711.00000p   25.2076m  108.9407m  127.2811m  -10.1767  
  712.00000p   26.6062m  108.8194m  124.9789m  -10.1842  
  713.00000p   27.7603m  107.9431m  121.3994m  -10.1886  
  714.00000p   28.9143m  107.0668m  117.8199m  -10.1930  
  715.00000p   30.0683m  106.1905m  114.2403m  -10.1974  
  716.00000p   31.2224m  105.3142m  110.6608m  -10.2018  
  717.00000p   32.3764m  104.4379m  107.0812m  -10.2062  
  718.00000p   33.5305m  103.5616m  103.5017m  -10.2106  
  719.00000p   34.6845m  102.6853m   99.9221m  -10.2150  
  720.00000p   35.8386m  101.8090m   96.3426m  -10.2194  
  721.00000p   36.9926m  100.9327m   92.7630m  -10.2238  
  722.00000p   38.1467m  100.0565m   89.1835m  -10.2282  
  723.00000p   39.3007m   99.1802m   85.6040m  -10.2326  
  724.00000p   40.4548m   98.3039m   82.0244m  -10.2370  
  725.00000p   41.6088m   97.4276m   78.4449m  -10.2414  
  726.00000p   42.7628m   96.5513m   74.8653m  -10.2458  
  727.00000p   43.9169m   95.6750m   71.2858m  -10.2502  
  728.00000p   45.0709m   94.7987m   67.7062m  -10.2546  
  729.00000p   46.2250m   93.9224m   64.1267m  -10.2591  
  730.00000p   47.3790m   93.0461m   60.5471m  -10.2635  
  731.00000p   48.5331m   92.1698m   56.9676m  -10.2679  
  732.00000p   49.6871m   91.2935m   53.3880m  -10.2723  
  733.00000p   50.8412m   90.4173m   49.8085m  -10.2767  
  734.00000p   51.9952m   89.5410m   46.2290m  -10.2811  
  735.00000p   53.1493m   88.6647m   42.6494m  -10.2855  
  736.00000p   54.3033m   87.7884m   39.0699m  -10.2899  
  737.00000p   55.4573m   86.9121m   35.4903m  -10.2943  
  738.00000p   56.6114m   86.0358m   31.9108m  -10.2987  
  739.00000p   57.7654m   85.1595m   28.3312m  -10.3031  
  740.00000p   58.9195m   84.2832m   24.7517m  -10.3075  
  741.00000p   60.0735m   83.4069m   21.1721m  -10.3119  
  742.00000p   61.2276m   82.5306m   17.5926m  -10.3163  
  743.00000p   62.3816m   81.6543m   14.0131m  -10.3207  
  744.00000p   63.5357m   80.7780m   10.4335m  -10.3251  
  745.00000p   64.6897m   79.9018m    6.8540m  -10.3295  
  746.00000p   65.8437m   79.0255m    3.2744m  -10.3339  
  747.00000p   66.9978m   78.1492m -305.1286u  -10.3383  
  748.00000p   68.1518m   77.2729m   -3.8847m  -10.3427  
  749.00000p   69.3059m   76.3966m   -7.4642m  -10.3471  
  750.00000p   70.4599m   75.5203m  -11.0438m  -10.3515  
  751.00000p   71.6140m   74.6440m  -14.6233m  -10.3559  
  752.00000p   72.7680m   73.7677m  -18.2029m  -10.3603  
  753.00000p   73.9221m   72.8914m  -21.7824m  -10.3647  
  754.00000p   75.0761m   72.0151m  -25.3619m  -10.3691  
  755.00000p   76.2302m   71.1388m  -28.9415m  -10.3735  
  756.00000p   77.3842m   70.2626m  -32.5210m  -10.3779  
  757.00000p   78.5382m   69.3863m  -36.1006m  -10.3823  
  758.00000p   79.6923m   68.5100m  -39.6801m  -10.3867  
  759.00000p   80.8463m   67.6337m  -43.2597m  -10.3911  
  760.00000p   82.0004m   66.7574m  -46.8392m  -10.3955  
  761.00000p   83.1544m   65.8811m  -50.4188m  -10.3999  
  762.00000p   82.4536m   63.3640m  -53.0423m  -10.3951  
  763.00000p   81.2045m   60.3619m  -55.3832m  -10.3874  
  764.00000p   79.9555m   57.3597m  -57.7241m  -10.3798  
  765.00000p   78.7064m   54.3576m  -60.0651m  -10.3722  
  766.00000p   77.4573m   51.3554m  -62.4060m  -10.3646  
  767.00000p   76.2082m   48.3533m  -64.7469m  -10.3570  
  768.00000p   74.9591m   45.3512m  -67.0878m  -10.3494  
  769.00000p   73.7100m   42.3490m  -69.4288m  -10.3418  
  770.00000p   72.4609m   39.3469m  -71.7697m  -10.3342  
  771.00000p   71.2118m   36.3447m  -74.1106m  -10.3265  
  772.00000p   69.9627m   33.3426m  -76.4515m  -10.3189  
  773.00000p   68.7136m   30.3405m  -78.7924m  -10.3113  
  774.00000p   67.4645m   27.3383m  -81.1334m  -10.3037  
  775.00000p   66.2154m   24.3362m  -83.4743m  -10.2961  
  776.00000p   64.9664m   21.3340m  -85.8152m  -10.2885  
  777.00000p   63.7173m   18.3319m  -88.1561m  -10.2809  
  778.00000p   62.4682m   15.3298m  -90.4971m  -10.2732  
  779.00000p   61.2191m   12.3276m  -92.8380m  -10.2656  
  780.00000p   59.9700m    9.3255m  -95.1789m  -10.2580  
  781.00000p   58.7209m    6.3233m  -97.5198m  -10.2504  
  782.00000p   57.4718m    3.3212m  -99.8608m  -10.2428  
  783.00000p   56.2227m  319.0687u -102.2017m  -10.2352  
  784.00000p   54.9736m   -2.6831m -104.5426m  -10.2276  
  785.00000p   53.7245m   -5.6852m -106.8835m  -10.2199  
  786.00000p   52.4754m   -8.6873m -109.2245m  -10.2123  
  787.00000p   51.2264m  -11.6895m -111.5654m  -10.2047  
  788.00000p   49.9773m  -14.6916m -113.9063m  -10.1971  
  789.00000p   48.7282m  -17.6938m -116.2472m  -10.1895  
  790.00000p   47.4791m  -20.6959m -118.5882m  -10.1819  
  791.00000p   46.2300m  -23.6980m -120.9291m  -10.1743  
  792.00000p   44.9809m  -26.7002m -123.2700m  -10.1666  
  793.00000p   43.7318m  -29.7023m -125.6109m  -10.1590  
  794.00000p   42.4827m  -32.7045m -127.9518m  -10.1514  
  795.00000p   41.2336m  -35.7066m -130.2928m  -10.1438  
  796.00000p   39.9845m  -38.7087m -132.6337m  -10.1362  
  797.00000p   38.7354m  -41.7109m -134.9746m  -10.1286  
  798.00000p   37.4863m  -44.7130m -137.3155m  -10.1210  
  799.00000p   36.2373m  -47.7152m -139.6565m  -10.1133  
  800.00000p   34.9882m  -50.7173m -141.9974m  -10.1057  
  801.00000p   33.7391m  -53.7194m -144.3383m  -10.0981  
  802.00000p   32.4900m  -56.7216m -146.6792m  -10.0905  
  803.00000p   31.2409m  -59.7237m -149.0202m  -10.0829  
  804.00000p   29.9918m  -62.7259m -151.3611m  -10.0753  
  805.00000p   28.7427m  -65.7280m -153.7020m  -10.0677  
  806.00000p   27.4936m  -68.7301m -156.0429m  -10.0600  
  807.00000p   26.2445m  -71.7323m -158.3839m  -10.0524  
  808.00000p   24.9954m  -74.7344m -160.7248m  -10.0448  
  809.00000p   23.7463m  -77.7366m -163.0657m  -10.0372  
  810.00000p   22.4973m  -80.7387m -165.4066m  -10.0296  
  811.00000p   21.2482m  -83.7408m -167.7476m  -10.0220  
  812.00000p   19.8570m  -84.3087m -165.6388m  -10.0180  
  813.00000p   18.4238m  -84.1570m -162.2146m  -10.0150  
  814.00000p   16.9906m  -84.0052m -158.7905m  -10.0121  
  815.00000p   15.5575m  -83.8535m -155.3663m  -10.0092  
  816.00000p   14.1243m  -83.7017m -151.9422m  -10.0062  
  817.00000p   12.6911m  -83.5500m -148.5181m  -10.0033  
  818.00000p   11.2580m  -83.3983m -145.0939m  -10.0004  
  819.00000p    9.8248m  -83.2465m -141.6698m   -9.9975  
  820.00000p    8.3916m  -83.0948m -138.2456m   -9.9945  
  821.00000p    6.9585m  -82.9431m -134.8215m   -9.9916  
  822.00000p    5.5253m  -82.7913m -131.3973m   -9.9887  
  823.00000p    4.0921m  -82.6396m -127.9732m   -9.9857  
  824.00000p    2.6589m  -82.4879m -124.5491m   -9.9828  
  825.00000p    1.2258m  -82.3361m -121.1249m   -9.9799  
  826.00000p -207.3907u  -82.1844m -117.7008m   -9.9769  
  827.00000p   -1.6406m  -82.0327m -114.2766m   -9.9740  
  828.00000p   -3.0737m  -81.8809m -110.8525m   -9.9711  
  829.00000p   -4.5069m  -81.7292m -107.4284m   -9.9681  
  830.00000p   -5.9401m  -81.5775m -104.0042m   -9.9652  
  831.00000p   -7.3732m  -81.4257m -100.5801m   -9.9623  
  832.00000p   -8.8064m  -81.2740m  -97.1559m   -9.9593  
  833.00000p  -10.2396m  -81.1223m  -93.7318m   -9.9564  
  834.00000p  -11.6728m  -80.9705m  -90.3076m   -9.9535  
  835.00000p  -13.1059m  -80.8188m  -86.8835m   -9.9505  
  836.00000p  -14.5391m  -80.6671m  -83.4594m   -9.9476  
  837.00000p  -15.9723m  -80.5153m  -80.0352m   -9.9447  
  838.00000p  -17.4054m  -80.3636m  -76.6111m   -9.9417  
  839.00000p  -18.8386m  -80.2119m  -73.1869m   -9.9388  
  840.00000p  -20.2718m  -80.0601m  -69.7628m   -9.9359  
  841.00000p  -21.7049m  -79.9084m  -66.3386m   -9.9329  
  842.00000p  -23.1381m  -79.7567m  -62.9145m   -9.9300  
  843.00000p  -24.5713m  -79.6049m  -59.4904m   -9.9271  
  844.00000p  -26.0044m  -79.4532m  -56.0662m   -9.9241  
  845.00000p  -27.4376m  -79.3015m  -52.6421m   -9.9212  
  846.00000p  -28.8708m  -79.1497m  -49.2179m   -9.9183  
  847.00000p  -30.3040m  -78.9980m  -45.7938m   -9.9153  
  848.00000p  -31.7371m  -78.8463m  -42.3696m   -9.9124  
  849.00000p  -33.1703m  -78.6945m  -38.9455m   -9.9095  
  850.00000p  -34.6035m  -78.5428m  -35.5214m   -9.9065  
  851.00000p  -36.0366m  -78.3911m  -32.0972m   -9.9036  
  852.00000p  -37.4698m  -78.2393m  -28.6731m   -9.9007  
  853.00000p  -38.9030m  -78.0876m  -25.2489m   -9.8978  
  854.00000p  -40.3361m  -77.9359m  -21.8248m   -9.8948  
  855.00000p  -41.7693m  -77.7841m  -18.4007m   -9.8919  
  856.00000p  -43.2025m  -77.6324m  -14.9765m   -9.8890  
  857.00000p  -44.6357m  -77.4807m  -11.5524m   -9.8860  
  858.00000p  -46.0688m  -77.3289m   -8.1282m   -9.8831  
  859.00000p  -47.5020m  -77.1772m   -4.7041m   -9.8802  
  860.00000p  -48.9352m  -77.0255m   -1.2799m   -9.8772  
  861.00000p  -50.3683m  -76.8737m    2.1442m   -9.8743  
  862.00000p  -50.2065m  -74.7964m    4.4983m   -9.8757  
  863.00000p  -49.5731m  -72.1498m    6.5360m   -9.8785  
  864.00000p  -48.9397m  -69.5033m    8.5738m   -9.8812  
  865.00000p  -48.3063m  -66.8567m   10.6115m   -9.8839  
  866.00000p  -47.6729m  -64.2102m   12.6492m   -9.8867  
  867.00000p  -47.0396m  -61.5636m   14.6870m   -9.8894  
  868.00000p  -46.4062m  -58.9171m   16.7247m   -9.8921  
  869.00000p  -45.7728m  -56.2705m   18.7625m   -9.8948  
  870.00000p  -45.1394m  -53.6239m   20.8002m   -9.8976  
  871.00000p  -44.5060m  -50.9774m   22.8380m   -9.9003  
  872.00000p  -43.8727m  -48.3308m   24.8757m   -9.9030  
  873.00000p  -43.2393m  -45.6843m   26.9134m   -9.9058  
  874.00000p  -42.6059m  -43.0377m   28.9512m   -9.9085  
  875.00000p  -41.9725m  -40.3912m   30.9889m   -9.9112  
  876.00000p  -41.3392m  -37.7446m   33.0267m   -9.9140  
  877.00000p  -40.7058m  -35.0980m   35.0644m   -9.9167  
  878.00000p  -40.0724m  -32.4515m   37.1022m   -9.9194  
  879.00000p  -39.4390m  -29.8049m   39.1399m   -9.9221  
  880.00000p  -38.8056m  -27.1584m   41.1776m   -9.9249  
  881.00000p  -38.1723m  -24.5118m   43.2154m   -9.9276  
  882.00000p  -37.5389m  -21.8653m   45.2531m   -9.9303  
  883.00000p  -36.9055m  -19.2187m   47.2909m   -9.9331  
  884.00000p  -36.2721m  -16.5721m   49.3286m   -9.9358  
  885.00000p  -35.6387m  -13.9256m   51.3664m   -9.9385  
  886.00000p  -35.0054m  -11.2790m   53.4041m   -9.9412  
  887.00000p  -34.3720m   -8.6325m   55.4418m   -9.9440  
  888.00000p  -33.7386m   -5.9859m   57.4796m   -9.9467  
  889.00000p  -33.1052m   -3.3394m   59.5173m   -9.9494  
  890.00000p  -32.4718m -692.7988u   61.5551m   -9.9522  
  891.00000p  -31.8385m    1.9538m   63.5928m   -9.9549  
  892.00000p  -31.2051m    4.6003m   65.6306m   -9.9576  
  893.00000p  -30.5717m    7.2469m   67.6683m   -9.9604  
  894.00000p  -29.9383m    9.8934m   69.7060m   -9.9631  
  895.00000p  -29.3049m   12.5400m   71.7438m   -9.9658  
  896.00000p  -28.6716m   15.1865m   73.7815m   -9.9685  
  897.00000p  -28.0382m   17.8331m   75.8193m   -9.9713  
  898.00000p  -27.4048m   20.4797m   77.8570m   -9.9740  
  899.00000p  -26.7714m   23.1262m   79.8947m   -9.9767  
  900.00000p  -26.1380m   25.7728m   81.9325m   -9.9795  
  901.00000p  -23.1123m   29.4594m   89.4585m   -9.8139  
  902.00000p  -20.0866m   33.1461m   96.9845m   -9.6483  
  903.00000p  -17.0609m   36.8328m  104.5106m   -9.4826  
  904.00000p  -14.0352m   40.5195m  112.0366m   -9.3170  
  905.00000p  -11.0095m   44.2061m  119.5626m   -9.1514  
  906.00000p   -7.9838m   47.8928m  127.0886m   -8.9858  
  907.00000p   -4.9581m   51.5795m  134.6147m   -8.8202  
  908.00000p   -1.9324m   55.2661m  142.1407m   -8.6546  
  909.00000p    1.0933m   58.9528m  149.6667m   -8.4890  
  910.00000p    4.1190m   62.6395m  157.1927m   -8.3234  
  911.00000p    7.1447m   66.3262m  164.7188m   -8.1578  
  912.00000p   10.1705m   70.0128m  172.2448m   -7.9922  
  913.00000p   13.1962m   73.6995m  179.7708m   -7.8266  
  914.00000p   16.2219m   77.3862m  187.2968m   -7.6610  
  915.00000p   19.2476m   81.0728m  194.8229m   -7.4954  
  916.00000p   22.2733m   84.7595m  202.3489m   -7.3298  
  917.00000p   25.2990m   88.4462m  209.8749m   -7.1642  
  918.00000p   28.3247m   92.1329m  217.4009m   -6.9986  
  919.00000p   31.3504m   95.8195m  224.9270m   -6.8330  
  920.00000p   34.3761m   99.5062m  232.4530m   -6.6673  
  921.00000p   37.4018m  103.1929m  239.9790m   -6.5017  
  922.00000p   40.4275m  106.8796m  247.5050m   -6.3361  
  923.00000p   43.4532m  110.5662m  255.0311m   -6.1705  
  924.00000p   46.4790m  114.2529m  262.5571m   -6.0049  
  925.00000p   49.5047m  117.9396m  270.0831m   -5.8393  
  926.00000p   52.2498m  121.2356m  277.2077m   -5.6712  
  927.00000p   54.9949m  124.5315m  284.3322m   -5.5031  
  928.00000p   57.7400m  127.8275m  291.4567m   -5.3349  
  929.00000p   60.4851m  131.1235m  298.5813m   -5.1668  
  930.00000p   63.2303m  134.4195m  305.7058m   -4.9987  
  931.00000p   65.9754m  137.7155m  312.8303m   -4.8305  
  932.00000p   68.7205m  141.0115m  319.9549m   -4.6624  
  933.00000p   71.4656m  144.3075m  327.0794m   -4.4943  
  934.00000p   74.2107m  147.6035m  334.2040m   -4.3261  
  935.00000p   76.9558m  150.8995m  341.3285m   -4.1580  
  936.00000p   79.7010m  154.1954m  348.4530m   -3.9899  
  937.00000p   82.3449m  157.3069m  355.2116m   -3.8209  
  938.00000p   84.8876m  160.2338m  361.6043m   -3.6510  
  939.00000p   87.4304m  163.1608m  367.9971m   -3.4811  
  940.00000p   89.9731m  166.0877m  374.3898m   -3.3112  
  941.00000p   92.5159m  169.0147m  380.7825m   -3.1413  
  942.00000p   95.0586m  171.9416m  387.1752m   -2.9714  
  943.00000p   97.6014m  174.8685m  393.5679m   -2.8015  
  944.00000p  100.1441m  177.7955m  399.9607m   -2.6316  
  945.00000p  102.6869m  180.7224m  406.3534m   -2.4617  
  946.00000p  105.2296m  183.6494m  412.7461m   -2.2918  
  947.00000p  107.7723m  186.5763m  419.1388m   -2.1219  
  948.00000p  110.3151m  189.5032m  425.5316m   -1.9521  
  949.00000p  112.8578m  192.4302m  431.9243m   -1.7822  
  950.00000p  115.4006m  195.3571m  438.3170m   -1.6123  
  951.00000p  115.2274m  193.7941m  432.2008m   -1.5987  
  952.00000p  115.0543m  192.2311m  426.0845m   -1.5852  
  953.00000p  114.8812m  190.6681m  419.9683m   -1.5716  
  954.00000p  114.7080m  189.1051m  413.8520m   -1.5580  
  955.00000p  114.5349m  187.5421m  407.7358m   -1.5445  
  956.00000p  114.3617m  185.9790m  401.6196m   -1.5309  
  957.00000p  114.1886m  184.4160m  395.5033m   -1.5174  
  958.00000p  114.0154m  182.8530m  389.3871m   -1.5038  
  959.00000p  113.8423m  181.2900m  383.2709m   -1.4903  
  960.00000p  113.6691m  179.7270m  377.1546m   -1.4767  
  961.00000p  113.4960m  178.1640m  371.0384m   -1.4632  
  962.00000p  113.3229m  176.6010m  364.9221m   -1.4496  
  963.00000p  113.1497m  175.0380m  358.8059m   -1.4360  
  964.00000p  112.9766m  173.4749m  352.6897m   -1.4225  
  965.00000p  112.8034m  171.9119m  346.5734m   -1.4089  
  966.00000p  112.6303m  170.3489m  340.4572m   -1.3954  
  967.00000p  112.4571m  168.7859m  334.3409m   -1.3818  
  968.00000p  112.2840m  167.2229m  328.2247m   -1.3683  
  969.00000p  112.1109m  165.6599m  322.1085m   -1.3547  
  970.00000p  111.9377m  164.0969m  315.9922m   -1.3412  
  971.00000p  111.7646m  162.5339m  309.8760m   -1.3276  
  972.00000p  111.6153m  160.9152m  303.6629m   -1.3144  
  973.00000p  111.5019m  159.2131m  297.3046m   -1.3017  
  974.00000p  111.3885m  157.5109m  290.9463m   -1.2890  
  975.00000p  111.2750m  155.8088m  284.5880m   -1.2763  
  976.00000p  111.1616m  154.1067m  278.2296m   -1.2636  
  977.00000p  111.0482m  152.4045m  271.8713m   -1.2509  
  978.00000p  110.9348m  150.7024m  265.5130m   -1.2382  
  979.00000p  110.8214m  149.0002m  259.1547m   -1.2255  
  980.00000p  110.7079m  147.2981m  252.7963m   -1.2128  
  981.00000p  110.5945m  145.5960m  246.4380m   -1.2001  
  982.00000p  110.0142m  142.9875m  239.3023m   -1.1841  
  983.00000p  109.4057m  140.3242m  232.1195m   -1.1679  
  984.00000p  108.7972m  137.6608m  224.9366m   -1.1517  
  985.00000p  108.1887m  134.9975m  217.7538m   -1.1355  
  986.00000p  107.5802m  132.3342m  210.5710m   -1.1193  
  987.00000p  106.9716m  129.6709m  203.3882m   -1.1031  
  988.00000p  106.3631m  127.0075m  196.2054m   -1.0869  
  989.00000p  105.7546m  124.3442m  189.0226m   -1.0707  
  990.00000p  105.1461m  121.6809m  181.8398m   -1.0545  
  991.00000p  104.5376m  119.0176m  174.6570m   -1.0383  
  992.00000p  103.9291m  116.3542m  167.4742m   -1.0221  
  993.00000p  103.3205m  113.6909m  160.2914m   -1.0060  
  994.00000p  102.7120m  111.0276m  153.1086m -989.7597m 
  995.00000p  102.1035m  108.3643m  145.9258m -973.5660m 
  996.00000p  101.4950m  105.7009m  138.7430m -957.3723m 
  997.00000p  100.8865m  103.0376m  131.5602m -941.1787m 
  998.00000p  100.2779m  100.3743m  124.3774m -924.9850m 
  999.00000p   99.6694m   97.7110m  117.1946m -908.7913m 
    1.00000n   99.0609m   95.0476m  110.0118m -892.5976m 
y

          ***** job concluded
 ******  
 *a bus interconnect circuit with 10 bus line 8 segment.

 ****** job statistics summary tnom=  25.000 temp=  25.000 ******

  ******  HSPICE Threads Information  ******

  Command Line Threads Count :     1
  Available CPU Count        :     8
  Actual Threads Count       :     1


  ******  Circuit Statistics  ******
  # nodes       =     171 # elements   =     945
  # resistors   =      91 # capacitors =     413 # inductors   =      80
  # mutual_inds =     360 # vccs       =       0 # vcvs        =       0
  # cccs        =       0 # ccvs       =       0 # volt_srcs   =       0
  # curr_srcs   =       1 # diodes     =       0 # bjts        =       0
  # jfets       =       0 # mosfets    =       0 # U elements  =       0
  # T elements  =       0 # W elements =       0 # B elements  =       0
  # S elements  =       0 # P elements =       0 # va device   =       0
  # vector_srcs =       0 # N elements =       0


  ******  Runtime Statistics (seconds)  ******

  analysis           time    # points   tot. iter  conv.iter
  op point           0.01           1           4
  transient          0.02        1001          82          41 rev=         1
  readin             0.14
  errchk             0.01
  setup              0.01
  output             0.00


           peak memory used         71.91 megabytes
           total cpu time            0.25 seconds
           total elapsed time        1.40 seconds
           job started at     16:19:43 11/27/2022
           job ended   at     16:19:44 11/27/2022
           job total runtime         1.40 seconds


  lic: Release hspice token(s) 
 lic: total license checkout elapse time:        1.15(s)
