 ****** HSPICE -- P-2019.06-SP1-1 win64 (Sep 27 2019) ******                    
  Copyright (c) 1986 - 2022 by Synopsys, Inc. All Rights Reserved.              
  This software and the associated documentation are proprietary
  to Synopsys, Inc. This software may only be used in accordance
  with the terms and conditions of a written license agreement with
  Synopsys, Inc. All other use, reproduction, or distribution of
  this software is strictly prohibited.
  Input File: RLC_p3.sp                                                         
  Command line options: C:\synopsys\Hspice_P-2019.06-SP1-1\WIN64\hspice.com -i RLC_p3.sp -o D:\workspace\circuit_analysis\project3-5\src\RLC_p3.lis
  Start time: Sun Nov 27 16:03:53 2022
  lic:  
  lic: FLEXlm: SDK_12.3 
  lic: USER:   44919                HOSTNAME: CZJ 
  lic: HOSTID: "3cf01186422d"       PID:      24592 
  lic: Using FLEXlm license file: 
  lic: 27000@CZJ 
  lic: Checkout 1 hspice 
  lic: License/Maintenance for hspice will expire on 30-dec-2030/2030.12 
  lic: 1(in_use)/99(total) FLOATING license(s) on SERVER 27000@CZJ 
  lic:   
1****** HSPICE -- P-2019.06-SP1-1 win64 (Sep 27 2019) ******                    
 ******  
 * example rlc-3

 ****** circuit name directory
 circuit number to circuit name directory
   number circuitname                     definition         multiplier
        0 main circuit
        1 x1.                             seg                1.00 
        2 x2.                             seg                1.00 
        3 x3.                             seg                1.00 
  **info** (RLC_p3.sp:3) DC voltage reset to initial transient source value in source 0:vin. new dc=0.0000D+00
  
      
 *****************************************************************
 ******  option summary
 ******
 runlvl  = 3         bypass  = 2.0000    

 **info** rebuilding matrix with pivot option

 **info** dc convergence successful at Newton-Raphson method 
 ******  
 * example rlc-3

 ****** operating point information tnom=  25.000 temp=  25.000 ******
 ****** operating point status is voltage   simulation time is     0.     
    node    =voltage      node    =voltage      node    =voltage

 +0:n_in1   =   0.      0:n_in2   =   0.      0:n_in3   =   0.     
 +0:n_out   =   0.      1:n_1     =   0.      2:n_1     =   0.     
 +3:n_1     =   0.     

 ******
 * example rlc-3

 ****** transient analysis tnom=  25.000 temp=  25.000 ******
x

 time         voltage   
             n_out      
    0.          0.      
    4.00000u    0.      
    8.00000u    0.      
   12.00000u    0.      
   16.00000u    0.      
   20.00000u    0.      
   24.00000u    0.      
   28.00000u    0.      
   32.00000u    0.      
   36.00000u    0.      
   40.00000u    0.      
   44.00000u    0.      
   48.00000u    0.      
   52.00000u    0.      
   56.00000u    0.      
   60.00000u    0.      
   64.00000u    0.      
   68.00000u    0.      
   72.00000u    0.      
   76.00000u    0.      
   80.00000u    0.      
   84.00000u    0.      
   88.00000u    0.      
   92.00000u    0.      
   96.00000u    0.      
  100.00000u    0.      
  104.00000u    0.      
  108.00000u    0.      
  112.00000u    0.      
  116.00000u    0.      
  120.00000u    0.      
  124.00000u    0.      
  128.00000u    0.      
  132.00000u    0.      
  136.00000u    0.      
  140.00000u    0.      
  144.00000u    0.      
  148.00000u    0.      
  152.00000u    0.      
  156.00000u    0.      
  160.00000u    0.      
  164.00000u    0.      
  168.00000u    0.      
  172.00000u    0.      
  176.00000u    0.      
  180.00000u    0.      
  184.00000u    0.      
  188.00000u    0.      
  192.00000u    0.      
  196.00000u    0.      
  200.00000u    0.      
  204.00000u    0.      
  208.00000u    0.      
  212.00000u    0.      
  216.00000u    0.      
  220.00000u    0.      
  224.00000u    0.      
  228.00000u    0.      
  232.00000u    0.      
  236.00000u    0.      
  240.00000u    0.      
  244.00000u    0.      
  248.00000u    0.      
  252.00000u    0.      
  256.00000u    0.      
  260.00000u    0.      
  264.00000u    0.      
  268.00000u    0.      
  272.00000u    0.      
  276.00000u    0.      
  280.00000u    0.      
  284.00000u    0.      
  288.00000u    0.      
  292.00000u    0.      
  296.00000u    0.      
  300.00000u    0.      
  304.00000u    0.      
  308.00000u    0.      
  312.00000u    0.      
  316.00000u    0.      
  320.00000u    0.      
  324.00000u    0.      
  328.00000u    0.      
  332.00000u    0.      
  336.00000u    0.      
  340.00000u    0.      
  344.00000u    0.      
  348.00000u    0.      
  352.00000u    0.      
  356.00000u    0.      
  360.00000u    0.      
  364.00000u    0.      
  368.00000u    0.      
  372.00000u    0.      
  376.00000u    0.      
  380.00000u    0.      
  384.00000u    0.      
  388.00000u    0.      
  392.00000u    0.      
  396.00000u    0.      
  400.00000u    0.      
  404.00000u    0.      
  408.00000u    0.      
  412.00000u    0.      
  416.00000u    0.      
  420.00000u    0.      
  424.00000u    0.      
  428.00000u    0.      
  432.00000u    0.      
  436.00000u    0.      
  440.00000u    0.      
  444.00000u    0.      
  448.00000u    0.      
  452.00000u    0.      
  456.00000u    0.      
  460.00000u    0.      
  464.00000u    0.      
  468.00000u    0.      
  472.00000u    0.      
  476.00000u    0.      
  480.00000u    0.      
  484.00000u    0.      
  488.00000u    0.      
  492.00000u    0.      
  496.00000u    0.      
  500.00000u    0.      
  504.00000u    0.      
  508.00000u    0.      
  512.00000u    0.      
  516.00000u    0.      
  520.00000u    0.      
  524.00000u    0.      
  528.00000u    0.      
  532.00000u    0.      
  536.00000u    0.      
  540.00000u    0.      
  544.00000u    0.      
  548.00000u    0.      
  552.00000u    0.      
  556.00000u    0.      
  560.00000u    0.      
  564.00000u    0.      
  568.00000u    0.      
  572.00000u    0.      
  576.00000u    0.      
  580.00000u    0.      
  584.00000u    0.      
  588.00000u    0.      
  592.00000u    0.      
  596.00000u    0.      
  600.00000u    0.      
  604.00000u    0.      
  608.00000u    0.      
  612.00000u    0.      
  616.00000u    0.      
  620.00000u    0.      
  624.00000u    0.      
  628.00000u    0.      
  632.00000u    0.      
  636.00000u    0.      
  640.00000u    0.      
  644.00000u    0.      
  648.00000u    0.      
  652.00000u    0.      
  656.00000u    0.      
  660.00000u    0.      
  664.00000u    0.      
  668.00000u    0.      
  672.00000u    0.      
  676.00000u    0.      
  680.00000u    0.      
  684.00000u    0.      
  688.00000u    0.      
  692.00000u    0.      
  696.00000u    0.      
  700.00000u    0.      
  704.00000u    0.      
  708.00000u    0.      
  712.00000u    0.      
  716.00000u    0.      
  720.00000u    0.      
  724.00000u    0.      
  728.00000u    0.      
  732.00000u    0.      
  736.00000u    0.      
  740.00000u    0.      
  744.00000u    0.      
  748.00000u    0.      
  752.00000u    0.      
  756.00000u    0.      
  760.00000u    0.      
  764.00000u    0.      
  768.00000u    0.      
  772.00000u    0.      
  776.00000u    0.      
  780.00000u    0.      
  784.00000u    0.      
  788.00000u    0.      
  792.00000u    0.      
  796.00000u    0.      
  800.00000u    0.      
  804.00000u    0.      
  808.00000u    0.      
  812.00000u    0.      
  816.00000u    0.      
  820.00000u    0.      
  824.00000u    0.      
  828.00000u    0.      
  832.00000u    0.      
  836.00000u    0.      
  840.00000u    0.      
  844.00000u    0.      
  848.00000u    0.      
  852.00000u    0.      
  856.00000u    0.      
  860.00000u    0.      
  864.00000u    0.      
  868.00000u    0.      
  872.00000u    0.      
  876.00000u    0.      
  880.00000u    0.      
  884.00000u    0.      
  888.00000u    0.      
  892.00000u    0.      
  896.00000u    0.      
  900.00000u    0.      
  904.00000u    0.      
  908.00000u    0.      
  912.00000u    0.      
  916.00000u    0.      
  920.00000u    0.      
  924.00000u    0.      
  928.00000u    0.      
  932.00000u    0.      
  936.00000u    0.      
  940.00000u    0.      
  944.00000u    0.      
  948.00000u    0.      
  952.00000u    0.      
  956.00000u    0.      
  960.00000u    0.      
  964.00000u    0.      
  968.00000u    0.      
  972.00000u    0.      
  976.00000u    0.      
  980.00000u    0.      
  984.00000u    0.      
  988.00000u    0.      
  992.00000u    0.      
  996.00000u    0.      
    1.00000m    0.      
    1.00400m    4.0416u 
    1.00800m    8.0832u 
    1.01200m   12.1248u 
    1.01600m   16.1665u 
    1.02000m   20.2081u 
    1.02400m   24.2497u 
    1.02800m   28.2913u 
    1.03200m   32.4083u 
    1.03600m   44.3588u 
    1.04000m   56.3093u 
    1.04400m   68.2597u 
    1.04800m   80.2102u 
    1.05200m   92.1607u 
    1.05600m  104.1112u 
    1.06000m  116.0617u 
    1.06400m  128.0122u 
    1.06800m  139.9626u 
    1.07200m  151.9131u 
    1.07600m  163.8636u 
    1.08000m  553.8253u 
    1.08400m    1.0052m 
    1.08800m    1.4566m 
    1.09200m    1.9080m 
    1.09600m    2.3594m 
    1.10000m    2.8108m 
    1.10400m    3.2622m 
    1.10800m    3.7136m 
    1.11200m    4.1650m 
    1.11600m    4.6164m 
    1.12000m    5.0678m 
    1.12400m    5.5192m 
    1.12800m    5.9706m 
    1.13200m    6.4220m 
    1.13600m    6.8734m 
    1.14000m    7.3248m 
    1.14400m    7.7762m 
    1.14800m    8.2276m 
    1.15200m    8.6790m 
    1.15600m    9.1304m 
    1.16000m    9.5817m 
    1.16400m   10.0331m 
    1.16800m   10.4845m 
    1.17200m   10.9359m 
    1.17600m   11.3873m 
    1.18000m   11.8387m 
    1.18400m   12.2901m 
    1.18800m   12.7415m 
    1.19200m   13.1929m 
    1.19600m   13.6443m 
    1.20000m   14.0957m 
    1.20400m   14.5471m 
    1.20800m   14.9985m 
    1.21200m   15.4499m 
    1.21600m   15.9013m 
    1.22000m   16.6149m 
    1.22400m   18.5041m 
    1.22800m   20.3934m 
    1.23200m   22.2826m 
    1.23600m   24.1718m 
    1.24000m   26.0611m 
    1.24400m   27.9503m 
    1.24800m   29.8396m 
    1.25200m   31.7288m 
    1.25600m   33.6181m 
    1.26000m   35.5073m 
    1.26400m   37.3965m 
    1.26800m   39.2858m 
    1.27200m   41.1750m 
    1.27600m   43.0643m 
    1.28000m   44.9535m 
    1.28400m   46.8428m 
    1.28800m   48.7320m 
    1.29200m   50.6212m 
    1.29600m   52.5105m 
    1.30000m   54.3997m 
    1.30400m   56.2890m 
    1.30800m   58.1782m 
    1.31200m   60.0675m 
    1.31600m   61.9567m 
    1.32000m   63.8459m 
    1.32400m   69.0482m 
    1.32800m   74.4289m 
    1.33200m   79.8096m 
    1.33600m   85.1903m 
    1.34000m   90.5710m 
    1.34400m   95.9517m 
    1.34800m  101.3324m 
    1.35200m  106.7131m 
    1.35600m  112.0938m 
    1.36000m  117.4746m 
    1.36400m  122.8553m 
    1.36800m  128.2360m 
    1.37200m  133.6167m 
    1.37600m  138.9974m 
    1.38000m  144.3781m 
    1.38400m  149.7588m 
    1.38800m  155.1395m 
    1.39200m  160.5202m 
    1.39600m  165.9009m 
    1.40000m  171.2816m 
    1.40400m  176.6623m 
    1.40800m  182.0430m 
    1.41200m  187.4237m 
    1.41600m  192.8044m 
    1.42000m  198.1851m 
    1.42400m  203.5658m 
    1.42800m  208.9465m 
    1.43200m  214.3272m 
    1.43600m  219.7080m 
    1.44000m  225.0887m 
    1.44400m  230.4694m 
    1.44800m  235.8501m 
    1.45200m  241.2308m 
    1.45600m  246.6115m 
    1.46000m  252.0684m 
    1.46400m  261.8501m 
    1.46800m  271.6317m 
    1.47200m  281.4134m 
    1.47600m  291.1951m 
    1.48000m  300.9767m 
    1.48400m  310.7584m 
    1.48800m  320.5401m 
    1.49200m  330.3217m 
    1.49600m  340.1034m 
    1.50000m  349.8851m 
    1.50400m  359.6667m 
    1.50800m  369.4484m 
    1.51200m  379.2301m 
    1.51600m  389.0117m 
    1.52000m  398.7934m 
    1.52400m  408.5751m 
    1.52800m  418.3567m 
    1.53200m  428.1384m 
    1.53600m  437.9201m 
    1.54000m  447.7017m 
    1.54400m  457.4834m 
    1.54800m  467.2651m 
    1.55200m  477.0467m 
    1.55600m  486.8284m 
    1.56000m  496.6100m 
    1.56400m  508.2843m 
    1.56800m  521.2643m 
    1.57200m  534.2442m 
    1.57600m  547.2242m 
    1.58000m  560.2041m 
    1.58400m  573.1841m 
    1.58800m  586.1641m 
    1.59200m  599.1440m 
    1.59600m  612.1240m 
    1.60000m  625.1039m 
    1.60400m  638.0839m 
    1.60800m  651.0638m 
    1.61200m  664.0438m 
    1.61600m  677.0237m 
    1.62000m  690.0037m 
    1.62400m  702.9836m 
    1.62800m  715.9636m 
    1.63200m  728.9435m 
    1.63600m  741.9235m 
    1.64000m  754.9034m 
    1.64400m  767.8834m 
    1.64800m  780.8634m 
    1.65200m  793.8433m 
    1.65600m  806.8233m 
    1.66000m  819.8032m 
    1.66400m  832.7832m 
    1.66800m  845.7631m 
    1.67200m  858.7431m 
    1.67600m  871.7230m 
    1.68000m  884.7030m 
    1.68400m  897.6829m 
    1.68800m  910.6629m 
    1.69200m  923.6428m 
    1.69600m  937.2848m 
    1.70000m  951.6538m 
    1.70400m  966.0228m 
    1.70800m  980.3918m 
    1.71200m  994.7608m 
    1.71600m    1.0091  
    1.72000m    1.0235  
    1.72400m    1.0379  
    1.72800m    1.0522  
    1.73200m    1.0666  
    1.73600m    1.0810  
    1.74000m    1.0953  
    1.74400m    1.1097  
    1.74800m    1.1241  
    1.75200m    1.1385  
    1.75600m    1.1528  
    1.76000m    1.1672  
    1.76400m    1.1816  
    1.76800m    1.1959  
    1.77200m    1.2103  
    1.77600m    1.2247  
    1.78000m    1.2390  
    1.78400m    1.2534  
    1.78800m    1.2678  
    1.79200m    1.2821  
    1.79600m    1.2965  
    1.80000m    1.3109  
    1.80400m    1.3252  
    1.80800m    1.3396  
    1.81200m    1.3540  
    1.81600m    1.3684  
    1.82000m    1.3827  
    1.82400m    1.3971  
    1.82800m    1.4115  
    1.83200m    1.4261  
    1.83600m    1.4406  
    1.84000m    1.4552  
    1.84400m    1.4698  
    1.84800m    1.4843  
    1.85200m    1.4989  
    1.85600m    1.5134  
    1.86000m    1.5280  
    1.86400m    1.5425  
    1.86800m    1.5571  
    1.87200m    1.5716  
    1.87600m    1.5862  
    1.88000m    1.6007  
    1.88400m    1.6153  
    1.88800m    1.6298  
    1.89200m    1.6444  
    1.89600m    1.6589  
    1.90000m    1.6735  
    1.90400m    1.6880  
    1.90800m    1.7026  
    1.91200m    1.7172  
    1.91600m    1.7317  
    1.92000m    1.7463  
    1.92400m    1.7608  
    1.92800m    1.7754  
    1.93200m    1.7899  
    1.93600m    1.8045  
    1.94000m    1.8190  
    1.94400m    1.8336  
    1.94800m    1.8481  
    1.95200m    1.8627  
    1.95600m    1.8774  
    1.96000m    1.8922  
    1.96400m    1.9070  
    1.96800m    1.9218  
    1.97200m    1.9366  
    1.97600m    1.9513  
    1.98000m    1.9661  
    1.98400m    1.9809  
    1.98800m    1.9957  
    1.99200m    2.0105  
    1.99600m    2.0253  
    2.00000m    2.0400  
    2.00400m    2.0551  
    2.00800m    2.0702  
    2.01200m    2.0852  
    2.01600m    2.1003  
    2.02000m    2.1154  
    2.02400m    2.1305  
    2.02800m    2.1457  
    2.03200m    2.1608  
    2.03600m    2.1759  
    2.04000m    2.1912  
    2.04400m    2.2065  
    2.04800m    2.2218  
    2.05200m    2.2371  
    2.05600m    2.2524  
    2.06000m    2.2677  
    2.06400m    2.2830  
    2.06800m    2.2983  
    2.07200m    2.3136  
    2.07600m    2.3289  
    2.08000m    2.3442  
    2.08400m    2.3595  
    2.08800m    2.3748  
    2.09200m    2.3900  
    2.09600m    2.4052  
    2.10000m    2.4204  
    2.10400m    2.4356  
    2.10800m    2.4508  
    2.11200m    2.4660  
    2.11600m    2.4813  
    2.12000m    2.4965  
    2.12400m    2.5117  
    2.12800m    2.5269  
    2.13200m    2.5421  
    2.13600m    2.5573  
    2.14000m    2.5725  
    2.14400m    2.5877  
    2.14800m    2.6029  
    2.15200m    2.6182  
    2.15600m    2.6334  
    2.16000m    2.6486  
    2.16400m    2.6638  
    2.16800m    2.6790  
    2.17200m    2.6941  
    2.17600m    2.7076  
    2.18000m    2.7212  
    2.18400m    2.7347  
    2.18800m    2.7483  
    2.19200m    2.7618  
    2.19600m    2.7754  
    2.20000m    2.7889  
    2.20400m    2.8025  
    2.20800m    2.8160  
    2.21200m    2.8295  
    2.21600m    2.8431  
    2.22000m    2.8566  
    2.22400m    2.8702  
    2.22800m    2.8837  
    2.23200m    2.8973  
    2.23600m    2.9108  
    2.24000m    2.9244  
    2.24400m    2.9379  
    2.24800m    2.9515  
    2.25200m    2.9650  
    2.25600m    2.9786  
    2.26000m    2.9921  
    2.26400m    3.0056  
    2.26800m    3.0192  
    2.27200m    3.0327  
    2.27600m    3.0463  
    2.28000m    3.0598  
    2.28400m    3.0734  
    2.28800m    3.0869  
    2.29200m    3.1005  
    2.29600m    3.1115  
    2.30000m    3.1213  
    2.30400m    3.1312  
    2.30800m    3.1410  
    2.31200m    3.1508  
    2.31600m    3.1606  
    2.32000m    3.1704  
    2.32400m    3.1802  
    2.32800m    3.1900  
    2.33200m    3.1999  
    2.33600m    3.2097  
    2.34000m    3.2195  
    2.34400m    3.2293  
    2.34800m    3.2391  
    2.35200m    3.2489  
    2.35600m    3.2587  
    2.36000m    3.2685  
    2.36400m    3.2784  
    2.36800m    3.2882  
    2.37200m    3.2980  
    2.37600m    3.3078  
    2.38000m    3.3176  
    2.38400m    3.3274  
    2.38800m    3.3372  
    2.39200m    3.3470  
    2.39600m    3.3553  
    2.40000m    3.3604  
    2.40400m    3.3655  
    2.40800m    3.3706  
    2.41200m    3.3757  
    2.41600m    3.3808  
    2.42000m    3.3859  
    2.42400m    3.3910  
    2.42800m    3.3961  
    2.43200m    3.4012  
    2.43600m    3.4063  
    2.44000m    3.4113  
    2.44400m    3.4164  
    2.44800m    3.4215  
    2.45200m    3.4266  
    2.45600m    3.4317  
    2.46000m    3.4368  
    2.46400m    3.4419  
    2.46800m    3.4470  
    2.47200m    3.4521  
    2.47600m    3.4572  
    2.48000m    3.4623  
    2.48400m    3.4674  
    2.48800m    3.4725  
    2.49200m    3.4776  
    2.49600m    3.4793  
    2.50000m    3.4799  
    2.50400m    3.4804  
    2.50800m    3.4810  
    2.51200m    3.4815  
    2.51600m    3.4821  
    2.52000m    3.4826  
    2.52400m    3.4832  
    2.52800m    3.4837  
    2.53200m    3.4843  
    2.53600m    3.4848  
    2.54000m    3.4854  
    2.54400m    3.4859  
    2.54800m    3.4865  
    2.55200m    3.4870  
    2.55600m    3.4876  
    2.56000m    3.4881  
    2.56400m    3.4886  
    2.56800m    3.4892  
    2.57200m    3.4897  
    2.57600m    3.4903  
    2.58000m    3.4908  
    2.58400m    3.4914  
    2.58800m    3.4919  
    2.59200m    3.4925  
    2.59600m    3.4930  
    2.60000m    3.4936  
    2.60400m    3.4941  
    2.60800m    3.4947  
    2.61200m    3.4952  
    2.61600m    3.4958  
    2.62000m    3.4946  
    2.62400m    3.4925  
    2.62800m    3.4904  
    2.63200m    3.4883  
    2.63600m    3.4863  
    2.64000m    3.4842  
    2.64400m    3.4821  
    2.64800m    3.4800  
    2.65200m    3.4779  
    2.65600m    3.4758  
    2.66000m    3.4738  
    2.66400m    3.4717  
    2.66800m    3.4696  
    2.67200m    3.4675  
    2.67600m    3.4654  
    2.68000m    3.4633  
    2.68400m    3.4613  
    2.68800m    3.4592  
    2.69200m    3.4571  
    2.69600m    3.4550  
    2.70000m    3.4529  
    2.70400m    3.4508  
    2.70800m    3.4488  
    2.71200m    3.4467  
    2.71600m    3.4446  
    2.72000m    3.4425  
    2.72400m    3.4404  
    2.72800m    3.4383  
    2.73200m    3.4357  
    2.73600m    3.4329  
    2.74000m    3.4302  
    2.74400m    3.4274  
    2.74800m    3.4247  
    2.75200m    3.4219  
    2.75600m    3.4192  
    2.76000m    3.4165  
    2.76400m    3.4137  
    2.76800m    3.4110  
    2.77200m    3.4082  
    2.77600m    3.4055  
    2.78000m    3.4027  
    2.78400m    3.4000  
    2.78800m    3.3972  
    2.79200m    3.3945  
    2.79600m    3.3918  
    2.80000m    3.3890  
    2.80400m    3.3863  
    2.80800m    3.3835  
    2.81200m    3.3808  
    2.81600m    3.3780  
    2.82000m    3.3753  
    2.82400m    3.3725  
    2.82800m    3.3698  
    2.83200m    3.3670  
    2.83600m    3.3643  
    2.84000m    3.3616  
    2.84400m    3.3588  
    2.84800m    3.3561  
    2.85200m    3.3533  
    2.85600m    3.3504  
    2.86000m    3.3471  
    2.86400m    3.3437  
    2.86800m    3.3404  
    2.87200m    3.3370  
    2.87600m    3.3336  
    2.88000m    3.3303  
    2.88400m    3.3269  
    2.88800m    3.3235  
    2.89200m    3.3202  
    2.89600m    3.3168  
    2.90000m    3.3134  
    2.90400m    3.3101  
    2.90800m    3.3067  
    2.91200m    3.3033  
    2.91600m    3.3000  
    2.92000m    3.2966  
    2.92400m    3.2933  
    2.92800m    3.2899  
    2.93200m    3.2865  
    2.93600m    3.2832  
    2.94000m    3.2798  
    2.94400m    3.2764  
    2.94800m    3.2731  
    2.95200m    3.2697  
    2.95600m    3.2663  
    2.96000m    3.2630  
    2.96400m    3.2596  
    2.96800m    3.2562  
    2.97200m    3.2529  
    2.97600m    3.2495  
    2.98000m    3.2462  
    2.98400m    3.2428  
    2.98800m    3.2394  
    2.99200m    3.2361  
    2.99600m    3.2321  
    3.00000m    3.2279  
    3.00400m    3.2237  
    3.00800m    3.2195  
    3.01200m    3.2154  
    3.01600m    3.2112  
    3.02000m    3.2070  
    3.02400m    3.2028  
    3.02800m    3.1986  
    3.03200m    3.1944  
    3.03600m    3.1902  
    3.04000m    3.1860  
    3.04400m    3.1818  
    3.04800m    3.1776  
    3.05200m    3.1735  
    3.05600m    3.1693  
    3.06000m    3.1651  
    3.06400m    3.1609  
    3.06800m    3.1567  
    3.07200m    3.1525  
    3.07600m    3.1483  
    3.08000m    3.1441  
    3.08400m    3.1399  
    3.08800m    3.1358  
    3.09200m    3.1316  
    3.09600m    3.1274  
    3.10000m    3.1232  
    3.10400m    3.1190  
    3.10800m    3.1149  
    3.11200m    3.1108  
    3.11600m    3.1068  
    3.12000m    3.1027  
    3.12400m    3.0986  
    3.12800m    3.0945  
    3.13200m    3.0904  
    3.13600m    3.0864  
    3.14000m    3.0823  
    3.14400m    3.0782  
    3.14800m    3.0741  
    3.15200m    3.0701  
    3.15600m    3.0660  
    3.16000m    3.0619  
    3.16400m    3.0578  
    3.16800m    3.0538  
    3.17200m    3.0497  
    3.17600m    3.0456  
    3.18000m    3.0415  
    3.18400m    3.0375  
    3.18800m    3.0334  
    3.19200m    3.0293  
    3.19600m    3.0252  
    3.20000m    3.0212  
    3.20400m    3.0171  
    3.20800m    3.0130  
    3.21200m    3.0089  
    3.21600m    3.0049  
    3.22000m    3.0008  
    3.22400m    2.9967  
    3.22800m    2.9928  
    3.23200m    2.9904  
    3.23600m    2.9880  
    3.24000m    2.9856  
    3.24400m    2.9831  
    3.24800m    2.9807  
    3.25200m    2.9783  
    3.25600m    2.9759  
    3.26000m    2.9734  
    3.26400m    2.9710  
    3.26800m    2.9686  
    3.27200m    2.9662  
    3.27600m    2.9638  
    3.28000m    2.9613  
    3.28400m    2.9589  
    3.28800m    2.9565  
    3.29200m    2.9541  
    3.29600m    2.9516  
    3.30000m    2.9492  
    3.30400m    2.9468  
    3.30800m    2.9444  
    3.31200m    2.9420  
    3.31600m    2.9395  
    3.32000m    2.9371  
    3.32400m    2.9347  
    3.32800m    2.9323  
    3.33200m    2.9298  
    3.33600m    2.9274  
    3.34000m    2.9250  
    3.34400m    2.9226  
    3.34800m    2.9202  
    3.35200m    2.9177  
    3.35600m    2.9153  
    3.36000m    2.9129  
    3.36400m    2.9105  
    3.36800m    2.9080  
    3.37200m    2.9056  
    3.37600m    2.9032  
    3.38000m    2.9008  
    3.38400m    2.8984  
    3.38800m    2.8959  
    3.39200m    2.8935  
    3.39600m    2.8924  
    3.40000m    2.8919  
    3.40400m    2.8913  
    3.40800m    2.8908  
    3.41200m    2.8902  
    3.41600m    2.8897  
    3.42000m    2.8891  
    3.42400m    2.8886  
    3.42800m    2.8880  
    3.43200m    2.8874  
    3.43600m    2.8869  
    3.44000m    2.8863  
    3.44400m    2.8858  
    3.44800m    2.8852  
    3.45200m    2.8847  
    3.45600m    2.8841  
    3.46000m    2.8836  
    3.46400m    2.8830  
    3.46800m    2.8824  
    3.47200m    2.8819  
    3.47600m    2.8813  
    3.48000m    2.8808  
    3.48400m    2.8802  
    3.48800m    2.8797  
    3.49200m    2.8791  
    3.49600m    2.8786  
    3.50000m    2.8780  
    3.50400m    2.8775  
    3.50800m    2.8769  
    3.51200m    2.8763  
    3.51600m    2.8758  
    3.52000m    2.8752  
    3.52400m    2.8747  
    3.52800m    2.8744  
    3.53200m    2.8748  
    3.53600m    2.8751  
    3.54000m    2.8754  
    3.54400m    2.8757  
    3.54800m    2.8761  
    3.55200m    2.8764  
    3.55600m    2.8767  
    3.56000m    2.8770  
    3.56400m    2.8773  
    3.56800m    2.8777  
    3.57200m    2.8780  
    3.57600m    2.8783  
    3.58000m    2.8786  
    3.58400m    2.8790  
    3.58800m    2.8793  
    3.59200m    2.8796  
    3.59600m    2.8799  
    3.60000m    2.8803  
    3.60400m    2.8806  
    3.60800m    2.8809  
    3.61200m    2.8812  
    3.61600m    2.8815  
    3.62000m    2.8819  
    3.62400m    2.8822  
    3.62800m    2.8825  
    3.63200m    2.8828  
    3.63600m    2.8832  
    3.64000m    2.8835  
    3.64400m    2.8838  
    3.64800m    2.8841  
    3.65200m    2.8844  
    3.65600m    2.8848  
    3.66000m    2.8851  
    3.66400m    2.8854  
    3.66800m    2.8857  
    3.67200m    2.8861  
    3.67600m    2.8864  
    3.68000m    2.8867  
    3.68400m    2.8870  
    3.68800m    2.8874  
    3.69200m    2.8877  
    3.69600m    2.8881  
    3.70000m    2.8887  
    3.70400m    2.8894  
    3.70800m    2.8900  
    3.71200m    2.8906  
    3.71600m    2.8913  
    3.72000m    2.8919  
    3.72400m    2.8926  
    3.72800m    2.8932  
    3.73200m    2.8938  
    3.73600m    2.8945  
    3.74000m    2.8951  
    3.74400m    2.8958  
    3.74800m    2.8964  
    3.75200m    2.8970  
    3.75600m    2.8977  
    3.76000m    2.8983  
    3.76400m    2.8990  
    3.76800m    2.8996  
    3.77200m    2.9002  
    3.77600m    2.9009  
    3.78000m    2.9015  
    3.78400m    2.9021  
    3.78800m    2.9028  
    3.79200m    2.9034  
    3.79600m    2.9041  
    3.80000m    2.9047  
    3.80400m    2.9053  
    3.80800m    2.9060  
    3.81200m    2.9066  
    3.81600m    2.9073  
    3.82000m    2.9079  
    3.82400m    2.9085  
    3.82800m    2.9092  
    3.83200m    2.9098  
    3.83600m    2.9105  
    3.84000m    2.9111  
    3.84400m    2.9117  
    3.84800m    2.9125  
    3.85200m    2.9134  
    3.85600m    2.9143  
    3.86000m    2.9152  
    3.86400m    2.9161  
    3.86800m    2.9170  
    3.87200m    2.9178  
    3.87600m    2.9187  
    3.88000m    2.9196  
    3.88400m    2.9205  
    3.88800m    2.9214  
    3.89200m    2.9223  
    3.89600m    2.9231  
    3.90000m    2.9240  
    3.90400m    2.9249  
    3.90800m    2.9258  
    3.91200m    2.9267  
    3.91600m    2.9276  
    3.92000m    2.9285  
    3.92400m    2.9293  
    3.92800m    2.9302  
    3.93200m    2.9311  
    3.93600m    2.9320  
    3.94000m    2.9329  
    3.94400m    2.9338  
    3.94800m    2.9347  
    3.95200m    2.9355  
    3.95600m    2.9364  
    3.96000m    2.9373  
    3.96400m    2.9382  
    3.96800m    2.9391  
    3.97200m    2.9400  
    3.97600m    2.9409  
    3.98000m    2.9417  
    3.98400m    2.9426  
    3.98800m    2.9435  
    3.99200m    2.9444  
    3.99600m    2.9453  
    4.00000m    2.9462  
    4.00400m    2.9470  
    4.00800m    2.9479  
    4.01200m    2.9488  
    4.01600m    2.9499  
    4.02000m    2.9510  
    4.02400m    2.9521  
    4.02800m    2.9532  
    4.03200m    2.9543  
    4.03600m    2.9553  
    4.04000m    2.9564  
    4.04400m    2.9575  
    4.04800m    2.9586  
    4.05200m    2.9597  
    4.05600m    2.9608  
    4.06000m    2.9619  
    4.06400m    2.9630  
    4.06800m    2.9640  
    4.07200m    2.9651  
    4.07600m    2.9662  
    4.08000m    2.9673  
    4.08400m    2.9684  
    4.08800m    2.9695  
    4.09200m    2.9706  
    4.09600m    2.9717  
    4.10000m    2.9728  
    4.10400m    2.9738  
    4.10800m    2.9749  
    4.11200m    2.9760  
    4.11600m    2.9771  
    4.12000m    2.9782  
    4.12400m    2.9793  
    4.12800m    2.9804  
    4.13200m    2.9815  
    4.13600m    2.9825  
    4.14000m    2.9836  
    4.14400m    2.9847  
    4.14800m    2.9858  
    4.15200m    2.9869  
    4.15600m    2.9880  
    4.16000m    2.9891  
    4.16400m    2.9902  
    4.16800m    2.9910  
    4.17200m    2.9919  
    4.17600m    2.9927  
    4.18000m    2.9936  
    4.18400m    2.9944  
    4.18800m    2.9953  
    4.19200m    2.9962  
    4.19600m    2.9970  
    4.20000m    2.9979  
    4.20400m    2.9987  
    4.20800m    2.9996  
    4.21200m    3.0004  
    4.21600m    3.0013  
    4.22000m    3.0021  
    4.22400m    3.0030  
    4.22800m    3.0039  
    4.23200m    3.0047  
    4.23600m    3.0056  
    4.24000m    3.0064  
    4.24400m    3.0073  
    4.24800m    3.0081  
    4.25200m    3.0090  
    4.25600m    3.0098  
    4.26000m    3.0107  
    4.26400m    3.0116  
    4.26800m    3.0124  
    4.27200m    3.0133  
    4.27600m    3.0141  
    4.28000m    3.0150  
    4.28400m    3.0158  
    4.28800m    3.0167  
    4.29200m    3.0175  
    4.29600m    3.0184  
    4.30000m    3.0193  
    4.30400m    3.0201  
    4.30800m    3.0210  
    4.31200m    3.0218  
    4.31600m    3.0227  
    4.32000m    3.0235  
    4.32400m    3.0244  
    4.32800m    3.0252  
    4.33200m    3.0261  
    4.33600m    3.0270  
    4.34000m    3.0275  
    4.34400m    3.0277  
    4.34800m    3.0279  
    4.35200m    3.0281  
    4.35600m    3.0283  
    4.36000m    3.0285  
    4.36400m    3.0287  
    4.36800m    3.0289  
    4.37200m    3.0291  
    4.37600m    3.0293  
    4.38000m    3.0295  
    4.38400m    3.0297  
    4.38800m    3.0299  
    4.39200m    3.0301  
    4.39600m    3.0303  
    4.40000m    3.0305  
    4.40400m    3.0307  
    4.40800m    3.0309  
    4.41200m    3.0311  
    4.41600m    3.0313  
    4.42000m    3.0315  
    4.42400m    3.0317  
    4.42800m    3.0319  
    4.43200m    3.0321  
    4.43600m    3.0323  
    4.44000m    3.0325  
    4.44400m    3.0327  
    4.44800m    3.0329  
    4.45200m    3.0331  
    4.45600m    3.0333  
    4.46000m    3.0335  
    4.46400m    3.0337  
    4.46800m    3.0339  
    4.47200m    3.0341  
    4.47600m    3.0343  
    4.48000m    3.0345  
    4.48400m    3.0347  
    4.48800m    3.0349  
    4.49200m    3.0351  
    4.49600m    3.0353  
    4.50000m    3.0355  
    4.50400m    3.0357  
    4.50800m    3.0359  
    4.51200m    3.0357  
    4.51600m    3.0355  
    4.52000m    3.0353  
    4.52400m    3.0350  
    4.52800m    3.0348  
    4.53200m    3.0346  
    4.53600m    3.0344  
    4.54000m    3.0342  
    4.54400m    3.0340  
    4.54800m    3.0338  
    4.55200m    3.0336  
    4.55600m    3.0334  
    4.56000m    3.0331  
    4.56400m    3.0329  
    4.56800m    3.0327  
    4.57200m    3.0325  
    4.57600m    3.0323  
    4.58000m    3.0321  
    4.58400m    3.0319  
    4.58800m    3.0317  
    4.59200m    3.0315  
    4.59600m    3.0313  
    4.60000m    3.0310  
    4.60400m    3.0308  
    4.60800m    3.0306  
    4.61200m    3.0304  
    4.61600m    3.0302  
    4.62000m    3.0300  
    4.62400m    3.0298  
    4.62800m    3.0296  
    4.63200m    3.0294  
    4.63600m    3.0291  
    4.64000m    3.0289  
    4.64400m    3.0287  
    4.64800m    3.0285  
    4.65200m    3.0283  
    4.65600m    3.0281  
    4.66000m    3.0279  
    4.66400m    3.0277  
    4.66800m    3.0275  
    4.67200m    3.0272  
    4.67600m    3.0270  
    4.68000m    3.0268  
    4.68400m    3.0266  
    4.68800m    3.0264  
    4.69200m    3.0262  
    4.69600m    3.0260  
    4.70000m    3.0258  
    4.70400m    3.0256  
    4.70800m    3.0254  
    4.71200m    3.0251  
    4.71600m    3.0249  
    4.72000m    3.0247  
    4.72400m    3.0245  
    4.72800m    3.0243  
    4.73200m    3.0241  
    4.73600m    3.0240  
    4.74000m    3.0238  
    4.74400m    3.0237  
    4.74800m    3.0236  
    4.75200m    3.0234  
    4.75600m    3.0233  
    4.76000m    3.0231  
    4.76400m    3.0230  
    4.76800m    3.0228  
    4.77200m    3.0227  
    4.77600m    3.0226  
    4.78000m    3.0224  
    4.78400m    3.0223  
    4.78800m    3.0221  
    4.79200m    3.0220  
    4.79600m    3.0218  
    4.80000m    3.0217  
    4.80400m    3.0216  
    4.80800m    3.0214  
    4.81200m    3.0213  
    4.81600m    3.0211  
    4.82000m    3.0210  
    4.82400m    3.0208  
    4.82800m    3.0207  
    4.83200m    3.0205  
    4.83600m    3.0204  
    4.84000m    3.0203  
    4.84400m    3.0201  
    4.84800m    3.0200  
    4.85200m    3.0198  
    4.85600m    3.0197  
    4.86000m    3.0195  
    4.86400m    3.0194  
    4.86800m    3.0193  
    4.87200m    3.0191  
    4.87600m    3.0190  
    4.88000m    3.0188  
    4.88400m    3.0187  
    4.88800m    3.0185  
    4.89200m    3.0184  
    4.89600m    3.0183  
    4.90000m    3.0181  
    4.90400m    3.0180  
    4.90800m    3.0178  
    4.91200m    3.0177  
    4.91600m    3.0175  
    4.92000m    3.0173  
    4.92400m    3.0171  
    4.92800m    3.0169  
    4.93200m    3.0167  
    4.93600m    3.0166  
    4.94000m    3.0164  
    4.94400m    3.0162  
    4.94800m    3.0160  
    4.95200m    3.0158  
    4.95600m    3.0156  
    4.96000m    3.0154  
    4.96400m    3.0152  
    4.96800m    3.0150  
    4.97200m    3.0148  
    4.97600m    3.0146  
    4.98000m    3.0144  
    4.98400m    3.0142  
    4.98800m    3.0140  
    4.99200m    3.0138  
    4.99600m    3.0136  
    5.00000m    3.0134  
    5.00400m    3.0132  
    5.00800m    3.0130  
    5.01200m    3.0128  
    5.01600m    3.0126  
    5.02000m    3.0124  
    5.02400m    3.0122  
    5.02800m    3.0120  
    5.03200m    3.0118  
    5.03600m    3.0116  
    5.04000m    3.0114  
    5.04400m    3.0112  
    5.04800m    3.0110  
    5.05200m    3.0109  
    5.05600m    3.0107  
    5.06000m    3.0105  
    5.06400m    3.0103  
    5.06800m    3.0101  
    5.07200m    3.0099  
    5.07600m    3.0097  
    5.08000m    3.0095  
    5.08400m    3.0093  
    5.08800m    3.0091  
    5.09200m    3.0089  
    5.09600m    3.0087  
    5.10000m    3.0085  
    5.10400m    3.0083  
    5.10800m    3.0081  
    5.11200m    3.0079  
    5.11600m    3.0077  
    5.12000m    3.0075  
    5.12400m    3.0073  
    5.12800m    3.0071  
    5.13200m    3.0069  
    5.13600m    3.0067  
    5.14000m    3.0065  
    5.14400m    3.0062  
    5.14800m    3.0059  
    5.15200m    3.0056  
    5.15600m    3.0053  
    5.16000m    3.0050  
    5.16400m    3.0047  
    5.16800m    3.0044  
    5.17200m    3.0041  
    5.17600m    3.0038  
    5.18000m    3.0035  
    5.18400m    3.0031  
    5.18800m    3.0028  
    5.19200m    3.0025  
    5.19600m    3.0022  
    5.20000m    3.0019  
    5.20400m    3.0016  
    5.20800m    3.0013  
    5.21200m    3.0010  
    5.21600m    3.0007  
    5.22000m    3.0004  
    5.22400m    3.0001  
    5.22800m    2.9998  
    5.23200m    2.9995  
    5.23600m    2.9992  
    5.24000m    2.9989  
    5.24400m    2.9986  
    5.24800m    2.9983  
    5.25200m    2.9980  
    5.25600m    2.9977  
    5.26000m    2.9974  
    5.26400m    2.9971  
    5.26800m    2.9967  
    5.27200m    2.9964  
    5.27600m    2.9961  
    5.28000m    2.9958  
    5.28400m    2.9955  
    5.28800m    2.9952  
    5.29200m    2.9949  
    5.29600m    2.9946  
    5.30000m    2.9943  
    5.30400m    2.9940  
    5.30800m    2.9937  
    5.31200m    2.9934  
    5.31600m    2.9931  
    5.32000m    2.9928  
    5.32400m    2.9925  
    5.32800m    2.9922  
    5.33200m    2.9919  
    5.33600m    2.9916  
    5.34000m    2.9913  
    5.34400m    2.9910  
    5.34800m    2.9907  
    5.35200m    2.9906  
    5.35600m    2.9906  
    5.36000m    2.9905  
    5.36400m    2.9905  
    5.36800m    2.9905  
    5.37200m    2.9905  
    5.37600m    2.9904  
    5.38000m    2.9904  
    5.38400m    2.9904  
    5.38800m    2.9904  
    5.39200m    2.9903  
    5.39600m    2.9903  
    5.40000m    2.9903  
    5.40400m    2.9903  
    5.40800m    2.9902  
    5.41200m    2.9902  
    5.41600m    2.9902  
    5.42000m    2.9902  
    5.42400m    2.9901  
    5.42800m    2.9901  
    5.43200m    2.9901  
    5.43600m    2.9901  
    5.44000m    2.9901  
    5.44400m    2.9900  
    5.44800m    2.9900  
    5.45200m    2.9900  
    5.45600m    2.9900  
    5.46000m    2.9899  
    5.46400m    2.9899  
    5.46800m    2.9899  
    5.47200m    2.9899  
    5.47600m    2.9898  
    5.48000m    2.9898  
    5.48400m    2.9898  
    5.48800m    2.9898  
    5.49200m    2.9897  
    5.49600m    2.9897  
    5.50000m    2.9897  
    5.50400m    2.9897  
    5.50800m    2.9896  
    5.51200m    2.9896  
    5.51600m    2.9896  
    5.52000m    2.9896  
    5.52400m    2.9896  
    5.52800m    2.9895  
    5.53200m    2.9895  
    5.53600m    2.9895  
    5.54000m    2.9895  
    5.54400m    2.9894  
    5.54800m    2.9894  
    5.55200m    2.9894  
    5.55600m    2.9894  
    5.56000m    2.9893  
    5.56400m    2.9893  
    5.56800m    2.9893  
    5.57200m    2.9893  
    5.57600m    2.9892  
    5.58000m    2.9892  
    5.58400m    2.9892  
    5.58800m    2.9892  
    5.59200m    2.9892  
    5.59600m    2.9891  
    5.60000m    2.9891  
    5.60400m    2.9891  
    5.60800m    2.9892  
    5.61200m    2.9893  
    5.61600m    2.9894  
    5.62000m    2.9896  
    5.62400m    2.9897  
    5.62800m    2.9899  
    5.63200m    2.9900  
    5.63600m    2.9901  
    5.64000m    2.9903  
    5.64400m    2.9904  
    5.64800m    2.9906  
    5.65200m    2.9907  
    5.65600m    2.9908  
    5.66000m    2.9910  
    5.66400m    2.9911  
    5.66800m    2.9912  
    5.67200m    2.9914  
    5.67600m    2.9915  
    5.68000m    2.9917  
    5.68400m    2.9918  
    5.68800m    2.9919  
    5.69200m    2.9921  
    5.69600m    2.9922  
    5.70000m    2.9924  
    5.70400m    2.9925  
    5.70800m    2.9926  
    5.71200m    2.9928  
    5.71600m    2.9929  
    5.72000m    2.9930  
    5.72400m    2.9932  
    5.72800m    2.9933  
    5.73200m    2.9935  
    5.73600m    2.9936  
    5.74000m    2.9937  
    5.74400m    2.9939  
    5.74800m    2.9940  
    5.75200m    2.9942  
    5.75600m    2.9943  
    5.76000m    2.9944  
    5.76400m    2.9946  
    5.76800m    2.9947  
    5.77200m    2.9949  
    5.77600m    2.9950  
    5.78000m    2.9951  
    5.78400m    2.9953  
    5.78800m    2.9954  
    5.79200m    2.9955  
    5.79600m    2.9957  
    5.80000m    2.9958  
    5.80400m    2.9960  
    5.80800m    2.9961  
    5.81200m    2.9962  
    5.81600m    2.9964  
    5.82000m    2.9965  
    5.82400m    2.9966  
    5.82800m    2.9966  
    5.83200m    2.9966  
    5.83600m    2.9966  
    5.84000m    2.9966  
    5.84400m    2.9967  
    5.84800m    2.9967  
    5.85200m    2.9967  
    5.85600m    2.9967  
    5.86000m    2.9967  
    5.86400m    2.9967  
    5.86800m    2.9968  
    5.87200m    2.9968  
    5.87600m    2.9968  
    5.88000m    2.9968  
    5.88400m    2.9968  
    5.88800m    2.9969  
    5.89200m    2.9969  
    5.89600m    2.9969  
    5.90000m    2.9969  
    5.90400m    2.9969  
    5.90800m    2.9970  
    5.91200m    2.9970  
    5.91600m    2.9970  
    5.92000m    2.9970  
    5.92400m    2.9970  
    5.92800m    2.9970  
    5.93200m    2.9971  
    5.93600m    2.9971  
    5.94000m    2.9971  
    5.94400m    2.9971  
    5.94800m    2.9971  
    5.95200m    2.9972  
    5.95600m    2.9972  
    5.96000m    2.9972  
    5.96400m    2.9972  
    5.96800m    2.9972  
    5.97200m    2.9973  
    5.97600m    2.9973  
    5.98000m    2.9973  
    5.98400m    2.9973  
    5.98800m    2.9973  
    5.99200m    2.9973  
    5.99600m    2.9974  
    6.00000m    2.9974  
    6.00400m    2.9974  
    6.00800m    2.9974  
    6.01200m    2.9974  
    6.01600m    2.9975  
    6.02000m    2.9975  
    6.02400m    2.9975  
    6.02800m    2.9975  
    6.03200m    2.9975  
    6.03600m    2.9976  
    6.04000m    2.9976  
    6.04400m    2.9976  
    6.04800m    2.9976  
    6.05200m    2.9976  
    6.05600m    2.9976  
    6.06000m    2.9977  
    6.06400m    2.9977  
    6.06800m    2.9977  
    6.07200m    2.9977  
    6.07600m    2.9977  
    6.08000m    2.9978  
    6.08400m    2.9978  
    6.08800m    2.9978  
    6.09200m    2.9978  
    6.09600m    2.9978  
    6.10000m    2.9979  
    6.10400m    2.9979  
    6.10800m    2.9979  
    6.11200m    2.9980  
    6.11600m    2.9980  
    6.12000m    2.9981  
    6.12400m    2.9981  
    6.12800m    2.9981  
    6.13200m    2.9982  
    6.13600m    2.9982  
    6.14000m    2.9983  
    6.14400m    2.9983  
    6.14800m    2.9984  
    6.15200m    2.9984  
    6.15600m    2.9985  
    6.16000m    2.9985  
    6.16400m    2.9986  
    6.16800m    2.9986  
    6.17200m    2.9987  
    6.17600m    2.9987  
    6.18000m    2.9987  
    6.18400m    2.9988  
    6.18800m    2.9988  
    6.19200m    2.9989  
    6.19600m    2.9989  
    6.20000m    2.9990  
    6.20400m    2.9990  
    6.20800m    2.9991  
    6.21200m    2.9991  
    6.21600m    2.9992  
    6.22000m    2.9992  
    6.22400m    2.9992  
    6.22800m    2.9993  
    6.23200m    2.9993  
    6.23600m    2.9994  
    6.24000m    2.9994  
    6.24400m    2.9995  
    6.24800m    2.9995  
    6.25200m    2.9996  
    6.25600m    2.9996  
    6.26000m    2.9997  
    6.26400m    2.9997  
    6.26800m    2.9998  
    6.27200m    2.9998  
    6.27600m    2.9998  
    6.28000m    2.9999  
    6.28400m    2.9999  
    6.28800m    3.0000  
    6.29200m    3.0000  
    6.29600m    3.0001  
    6.30000m    3.0001  
    6.30400m    3.0002  
    6.30800m    3.0002  
    6.31200m    3.0003  
    6.31600m    3.0003  
    6.32000m    3.0004  
    6.32400m    3.0004  
    6.32800m    3.0004  
    6.33200m    3.0005  
    6.33600m    3.0005  
    6.34000m    3.0006  
    6.34400m    3.0006  
    6.34800m    3.0007  
    6.35200m    3.0007  
    6.35600m    3.0008  
    6.36000m    3.0008  
    6.36400m    3.0009  
    6.36800m    3.0009  
    6.37200m    3.0010  
    6.37600m    3.0010  
    6.38000m    3.0010  
    6.38400m    3.0011  
    6.38800m    3.0011  
    6.39200m    3.0012  
    6.39600m    3.0012  
    6.40000m    3.0013  
    6.40400m    3.0013  
    6.40800m    3.0014  
    6.41200m    3.0014  
    6.41600m    3.0015  
    6.42000m    3.0015  
    6.42400m    3.0016  
    6.42800m    3.0016  
    6.43200m    3.0017  
    6.43600m    3.0017  
    6.44000m    3.0018  
    6.44400m    3.0018  
    6.44800m    3.0018  
    6.45200m    3.0019  
    6.45600m    3.0019  
    6.46000m    3.0020  
    6.46400m    3.0020  
    6.46800m    3.0021  
    6.47200m    3.0021  
    6.47600m    3.0022  
    6.48000m    3.0022  
    6.48400m    3.0023  
    6.48800m    3.0023  
    6.49200m    3.0024  
    6.49600m    3.0024  
    6.50000m    3.0025  
    6.50400m    3.0025  
    6.50800m    3.0026  
    6.51200m    3.0026  
    6.51600m    3.0026  
    6.52000m    3.0027  
    6.52400m    3.0027  
    6.52800m    3.0028  
    6.53200m    3.0028  
    6.53600m    3.0029  
    6.54000m    3.0029  
    6.54400m    3.0030  
    6.54800m    3.0030  
    6.55200m    3.0031  
    6.55600m    3.0031  
    6.56000m    3.0032  
    6.56400m    3.0032  
    6.56800m    3.0033  
    6.57200m    3.0033  
    6.57600m    3.0034  
    6.58000m    3.0034  
    6.58400m    3.0034  
    6.58800m    3.0035  
    6.59200m    3.0035  
    6.59600m    3.0036  
    6.60000m    3.0036  
    6.60400m    3.0037  
    6.60800m    3.0037  
    6.61200m    3.0038  
    6.61600m    3.0038  
    6.62000m    3.0039  
    6.62400m    3.0039  
    6.62800m    3.0040  
    6.63200m    3.0040  
    6.63600m    3.0041  
    6.64000m    3.0041  
    6.64400m    3.0042  
    6.64800m    3.0042  
    6.65200m    3.0043  
    6.65600m    3.0043  
    6.66000m    3.0042  
    6.66400m    3.0042  
    6.66800m    3.0041  
    6.67200m    3.0041  
    6.67600m    3.0040  
    6.68000m    3.0040  
    6.68400m    3.0040  
    6.68800m    3.0039  
    6.69200m    3.0039  
    6.69600m    3.0038  
    6.70000m    3.0038  
    6.70400m    3.0037  
    6.70800m    3.0037  
    6.71200m    3.0036  
    6.71600m    3.0036  
    6.72000m    3.0035  
    6.72400m    3.0035  
    6.72800m    3.0034  
    6.73200m    3.0034  
    6.73600m    3.0034  
    6.74000m    3.0033  
    6.74400m    3.0033  
    6.74800m    3.0032  
    6.75200m    3.0031  
    6.75600m    3.0031  
    6.76000m    3.0030  
    6.76400m    3.0030  
    6.76800m    3.0029  
    6.77200m    3.0029  
    6.77600m    3.0028  
    6.78000m    3.0028  
    6.78400m    3.0027  
    6.78800m    3.0027  
    6.79200m    3.0026  
    6.79600m    3.0026  
    6.80000m    3.0025  
    6.80400m    3.0025  
    6.80800m    3.0024  
    6.81200m    3.0024  
    6.81600m    3.0023  
    6.82000m    3.0023  
    6.82400m    3.0022  
    6.82800m    3.0022  
    6.83200m    3.0021  
    6.83600m    3.0021  
    6.84000m    3.0020  
    6.84400m    3.0019  
    6.84800m    3.0019  
    6.85200m    3.0018  
    6.85600m    3.0018  
    6.86000m    3.0017  
    6.86400m    3.0017  
    6.86800m    3.0016  
    6.87200m    3.0016  
    6.87600m    3.0015  
    6.88000m    3.0015  
    6.88400m    3.0014  
    6.88800m    3.0014  
    6.89200m    3.0013  
    6.89600m    3.0013  
    6.90000m    3.0012  
    6.90400m    3.0012  
    6.90800m    3.0011  
    6.91200m    3.0011  
    6.91600m    3.0010  
    6.92000m    3.0010  
    6.92400m    3.0009  
    6.92800m    3.0009  
    6.93200m    3.0008  
    6.93600m    3.0007  
    6.94000m    3.0007  
    6.94400m    3.0006  
    6.94800m    3.0006  
    6.95200m    3.0005  
    6.95600m    3.0005  
    6.96000m    3.0004  
    6.96400m    3.0004  
    6.96800m    3.0003  
    6.97200m    3.0003  
    6.97600m    3.0002  
    6.98000m    3.0002  
    6.98400m    3.0001  
    6.98800m    3.0001  
    6.99200m    3.0000  
    6.99600m    3.0000  
    7.00000m    3.0000  
    7.00400m    3.0000  
    7.00800m    3.0000  
    7.01200m    3.0000  
    7.01600m    3.0000  
    7.02000m    2.9999  
    7.02400m    2.9999  
    7.02800m    2.9999  
    7.03200m    2.9999  
    7.03600m    2.9999  
    7.04000m    2.9999  
    7.04400m    2.9999  
    7.04800m    2.9999  
    7.05200m    2.9998  
    7.05600m    2.9998  
    7.06000m    2.9998  
    7.06400m    2.9998  
    7.06800m    2.9998  
    7.07200m    2.9998  
    7.07600m    2.9998  
    7.08000m    2.9998  
    7.08400m    2.9998  
    7.08800m    2.9997  
    7.09200m    2.9997  
    7.09600m    2.9997  
    7.10000m    2.9997  
    7.10400m    2.9997  
    7.10800m    2.9997  
    7.11200m    2.9997  
    7.11600m    2.9997  
    7.12000m    2.9997  
    7.12400m    2.9996  
    7.12800m    2.9996  
    7.13200m    2.9996  
    7.13600m    2.9996  
    7.14000m    2.9996  
    7.14400m    2.9996  
    7.14800m    2.9996  
    7.15200m    2.9996  
    7.15600m    2.9996  
    7.16000m    2.9995  
    7.16400m    2.9995  
    7.16800m    2.9995  
    7.17200m    2.9995  
    7.17600m    2.9995  
    7.18000m    2.9995  
    7.18400m    2.9995  
    7.18800m    2.9995  
    7.19200m    2.9995  
    7.19600m    2.9994  
    7.20000m    2.9994  
    7.20400m    2.9994  
    7.20800m    2.9994  
    7.21200m    2.9994  
    7.21600m    2.9994  
    7.22000m    2.9994  
    7.22400m    2.9994  
    7.22800m    2.9994  
    7.23200m    2.9993  
    7.23600m    2.9993  
    7.24000m    2.9993  
    7.24400m    2.9993  
    7.24800m    2.9993  
    7.25200m    2.9993  
    7.25600m    2.9993  
    7.26000m    2.9993  
    7.26400m    2.9993  
    7.26800m    2.9993  
    7.27200m    2.9993  
    7.27600m    2.9993  
    7.28000m    2.9993  
    7.28400m    2.9994  
    7.28800m    2.9994  
    7.29200m    2.9994  
    7.29600m    2.9994  
    7.30000m    2.9994  
    7.30400m    2.9994  
    7.30800m    2.9994  
    7.31200m    2.9994  
    7.31600m    2.9995  
    7.32000m    2.9995  
    7.32400m    2.9995  
    7.32800m    2.9995  
    7.33200m    2.9995  
    7.33600m    2.9995  
    7.34000m    2.9995  
    7.34400m    2.9996  
    7.34800m    2.9996  
    7.35200m    2.9996  
    7.35600m    2.9996  
    7.36000m    2.9996  
    7.36400m    2.9996  
    7.36800m    2.9996  
    7.37200m    2.9997  
    7.37600m    2.9997  
    7.38000m    2.9997  
    7.38400m    2.9997  
    7.38800m    2.9997  
    7.39200m    2.9997  
    7.39600m    2.9997  
    7.40000m    2.9997  
    7.40400m    2.9998  
    7.40800m    2.9998  
    7.41200m    2.9998  
    7.41600m    2.9998  
    7.42000m    2.9998  
    7.42400m    2.9998  
    7.42800m    2.9998  
    7.43200m    2.9999  
    7.43600m    2.9999  
    7.44000m    2.9999  
    7.44400m    2.9999  
    7.44800m    2.9999  
    7.45200m    2.9999  
    7.45600m    2.9999  
    7.46000m    3.0000  
    7.46400m    3.0000  
    7.46800m    3.0000  
    7.47200m    3.0000  
    7.47600m    3.0000  
    7.48000m    3.0000  
    7.48400m    3.0000  
    7.48800m    3.0000  
    7.49200m    3.0001  
    7.49600m    3.0001  
    7.50000m    3.0001  
    7.50400m    3.0001  
    7.50800m    3.0001  
    7.51200m    3.0001  
    7.51600m    3.0001  
    7.52000m    3.0001  
    7.52400m    3.0001  
    7.52800m    3.0001  
    7.53200m    3.0001  
    7.53600m    3.0001  
    7.54000m    3.0001  
    7.54400m    3.0000  
    7.54800m    3.0000  
    7.55200m    3.0000  
    7.55600m    3.0000  
    7.56000m    3.0000  
    7.56400m    3.0000  
    7.56800m    3.0000  
    7.57200m    3.0000  
    7.57600m    3.0000  
    7.58000m    3.0000  
    7.58400m    3.0000  
    7.58800m    3.0000  
    7.59200m    3.0000  
    7.59600m    3.0000  
    7.60000m    3.0000  
    7.60400m    2.9999  
    7.60800m    2.9999  
    7.61200m    2.9999  
    7.61600m    2.9999  
    7.62000m    2.9999  
    7.62400m    2.9998  
    7.62800m    2.9998  
    7.63200m    2.9998  
    7.63600m    2.9998  
    7.64000m    2.9998  
    7.64400m    2.9997  
    7.64800m    2.9997  
    7.65200m    2.9997  
    7.65600m    2.9997  
    7.66000m    2.9997  
    7.66400m    2.9997  
    7.66800m    2.9996  
    7.67200m    2.9996  
    7.67600m    2.9996  
    7.68000m    2.9996  
    7.68400m    2.9996  
    7.68800m    2.9995  
    7.69200m    2.9995  
    7.69600m    2.9995  
    7.70000m    2.9995  
    7.70400m    2.9995  
    7.70800m    2.9994  
    7.71200m    2.9994  
    7.71600m    2.9994  
    7.72000m    2.9994  
    7.72400m    2.9994  
    7.72800m    2.9994  
    7.73200m    2.9993  
    7.73600m    2.9993  
    7.74000m    2.9993  
    7.74400m    2.9993  
    7.74800m    2.9993  
    7.75200m    2.9992  
    7.75600m    2.9992  
    7.76000m    2.9992  
    7.76400m    2.9992  
    7.76800m    2.9992  
    7.77200m    2.9991  
    7.77600m    2.9991  
    7.78000m    2.9991  
    7.78400m    2.9991  
    7.78800m    2.9991  
    7.79200m    2.9991  
    7.79600m    2.9990  
    7.80000m    2.9990  
    7.80400m    2.9990  
    7.80800m    2.9990  
    7.81200m    2.9990  
    7.81600m    2.9989  
    7.82000m    2.9989  
    7.82400m    2.9989  
    7.82800m    2.9989  
    7.83200m    2.9989  
    7.83600m    2.9989  
    7.84000m    2.9988  
    7.84400m    2.9988  
    7.84800m    2.9988  
    7.85200m    2.9988  
    7.85600m    2.9988  
    7.86000m    2.9987  
    7.86400m    2.9987  
    7.86800m    2.9987  
    7.87200m    2.9987  
    7.87600m    2.9987  
    7.88000m    2.9986  
    7.88400m    2.9986  
    7.88800m    2.9987  
    7.89200m    2.9987  
    7.89600m    2.9987  
    7.90000m    2.9987  
    7.90400m    2.9987  
    7.90800m    2.9988  
    7.91200m    2.9988  
    7.91600m    2.9988  
    7.92000m    2.9988  
    7.92400m    2.9989  
    7.92800m    2.9989  
    7.93200m    2.9989  
    7.93600m    2.9989  
    7.94000m    2.9989  
    7.94400m    2.9990  
    7.94800m    2.9990  
    7.95200m    2.9990  
    7.95600m    2.9990  
    7.96000m    2.9991  
    7.96400m    2.9991  
    7.96800m    2.9991  
    7.97200m    2.9991  
    7.97600m    2.9991  
    7.98000m    2.9992  
    7.98400m    2.9992  
    7.98800m    2.9992  
    7.99200m    2.9992  
    7.99600m    2.9993  
    8.00000m    2.9993  
    8.00400m    2.9993  
    8.00800m    2.9993  
    8.01200m    2.9993  
    8.01600m    2.9994  
    8.02000m    2.9994  
    8.02400m    2.9994  
    8.02800m    2.9994  
    8.03200m    2.9995  
    8.03600m    2.9995  
    8.04000m    2.9995  
    8.04400m    2.9995  
    8.04800m    2.9995  
    8.05200m    2.9996  
    8.05600m    2.9996  
    8.06000m    2.9996  
    8.06400m    2.9996  
    8.06800m    2.9997  
    8.07200m    2.9997  
    8.07600m    2.9997  
    8.08000m    2.9997  
    8.08400m    2.9997  
    8.08800m    2.9998  
    8.09200m    2.9998  
    8.09600m    2.9998  
    8.10000m    2.9998  
    8.10400m    2.9999  
    8.10800m    2.9999  
    8.11200m    2.9999  
    8.11600m    2.9999  
    8.12000m    3.0000  
    8.12400m    3.0000  
    8.12800m    3.0001  
    8.13200m    3.0001  
    8.13600m    3.0002  
    8.14000m    3.0002  
    8.14400m    3.0002  
    8.14800m    3.0003  
    8.15200m    3.0003  
    8.15600m    3.0004  
    8.16000m    3.0004  
    8.16400m    3.0005  
    8.16800m    3.0005  
    8.17200m    3.0006  
    8.17600m    3.0006  
    8.18000m    3.0007  
    8.18400m    3.0007  
    8.18800m    3.0008  
    8.19200m    3.0008  
    8.19600m    3.0009  
    8.20000m    3.0009  
    8.20400m    3.0010  
    8.20800m    3.0010  
    8.21200m    3.0009  
    8.21600m    3.0009  
    8.22000m    3.0009  
    8.22400m    3.0009  
    8.22800m    3.0009  
    8.23200m    3.0009  
    8.23600m    3.0009  
    8.24000m    3.0009  
    8.24400m    3.0009  
    8.24800m    3.0008  
    8.25200m    3.0008  
    8.25600m    3.0008  
    8.26000m    3.0008  
    8.26400m    3.0008  
    8.26800m    3.0008  
    8.27200m    3.0008  
    8.27600m    3.0008  
    8.28000m    3.0008  
    8.28400m    3.0008  
    8.28800m    3.0007  
    8.29200m    3.0007  
    8.29600m    3.0007  
    8.30000m    3.0007  
    8.30400m    3.0007  
    8.30800m    3.0007  
    8.31200m    3.0007  
    8.31600m    3.0007  
    8.32000m    3.0007  
    8.32400m    3.0006  
    8.32800m    3.0006  
    8.33200m    3.0006  
    8.33600m    3.0006  
    8.34000m    3.0006  
    8.34400m    3.0006  
    8.34800m    3.0006  
    8.35200m    3.0006  
    8.35600m    3.0006  
    8.36000m    3.0005  
    8.36400m    3.0005  
    8.36800m    3.0005  
    8.37200m    3.0005  
    8.37600m    3.0005  
    8.38000m    3.0005  
    8.38400m    3.0005  
    8.38800m    3.0005  
    8.39200m    3.0005  
    8.39600m    3.0004  
    8.40000m    3.0004  
    8.40400m    3.0004  
    8.40800m    3.0004  
    8.41200m    3.0004  
    8.41600m    3.0004  
    8.42000m    3.0004  
    8.42400m    3.0004  
    8.42800m    3.0004  
    8.43200m    3.0003  
    8.43600m    3.0003  
    8.44000m    3.0003  
    8.44400m    3.0003  
    8.44800m    3.0003  
    8.45200m    3.0003  
    8.45600m    3.0003  
    8.46000m    3.0003  
    8.46400m    3.0003  
    8.46800m    3.0002  
    8.47200m    3.0002  
    8.47600m    3.0002  
    8.48000m    3.0002  
    8.48400m    3.0002  
    8.48800m    3.0002  
    8.49200m    3.0002  
    8.49600m    3.0002  
    8.50000m    3.0002  
    8.50400m    3.0001  
    8.50800m    3.0001  
    8.51200m    3.0001  
    8.51600m    3.0001  
    8.52000m    3.0001  
    8.52400m    3.0001  
    8.52800m    3.0001  
    8.53200m    3.0001  
    8.53600m    3.0000  
    8.54000m    3.0000  
    8.54400m    3.0000  
    8.54800m    3.0000  
    8.55200m    3.0000  
    8.55600m    3.0000  
    8.56000m    3.0000  
    8.56400m    2.9999  
    8.56800m    2.9999  
    8.57200m    2.9999  
    8.57600m    2.9999  
    8.58000m    2.9999  
    8.58400m    2.9999  
    8.58800m    2.9999  
    8.59200m    2.9999  
    8.59600m    2.9998  
    8.60000m    2.9998  
    8.60400m    2.9998  
    8.60800m    2.9998  
    8.61200m    2.9998  
    8.61600m    2.9998  
    8.62000m    2.9998  
    8.62400m    2.9998  
    8.62800m    2.9997  
    8.63200m    2.9997  
    8.63600m    2.9997  
    8.64000m    2.9997  
    8.64400m    2.9997  
    8.64800m    2.9997  
    8.65200m    2.9997  
    8.65600m    2.9997  
    8.66000m    2.9996  
    8.66400m    2.9996  
    8.66800m    2.9996  
    8.67200m    2.9996  
    8.67600m    2.9996  
    8.68000m    2.9996  
    8.68400m    2.9996  
    8.68800m    2.9996  
    8.69200m    2.9995  
    8.69600m    2.9995  
    8.70000m    2.9995  
    8.70400m    2.9995  
    8.70800m    2.9995  
    8.71200m    2.9995  
    8.71600m    2.9995  
    8.72000m    2.9995  
    8.72400m    2.9994  
    8.72800m    2.9994  
    8.73200m    2.9994  
    8.73600m    2.9994  
    8.74000m    2.9994  
    8.74400m    2.9994  
    8.74800m    2.9994  
    8.75200m    2.9994  
    8.75600m    2.9995  
    8.76000m    2.9995  
    8.76400m    2.9995  
    8.76800m    2.9996  
    8.77200m    2.9996  
    8.77600m    2.9997  
    8.78000m    2.9997  
    8.78400m    2.9997  
    8.78800m    2.9998  
    8.79200m    2.9998  
    8.79600m    2.9998  
    8.80000m    2.9999  
    8.80400m    2.9999  
    8.80800m    3.0000  
    8.81200m    3.0000  
    8.81600m    3.0000  
    8.82000m    3.0001  
    8.82400m    3.0001  
    8.82800m    3.0002  
    8.83200m    3.0002  
    8.83600m    3.0002  
    8.84000m    3.0002  
    8.84400m    3.0002  
    8.84800m    3.0002  
    8.85200m    3.0002  
    8.85600m    3.0002  
    8.86000m    3.0002  
    8.86400m    3.0002  
    8.86800m    3.0002  
    8.87200m    3.0003  
    8.87600m    3.0003  
    8.88000m    3.0003  
    8.88400m    3.0003  
    8.88800m    3.0003  
    8.89200m    3.0003  
    8.89600m    3.0003  
    8.90000m    3.0003  
    8.90400m    3.0003  
    8.90800m    3.0003  
    8.91200m    3.0003  
    8.91600m    3.0003  
    8.92000m    3.0003  
    8.92400m    3.0003  
    8.92800m    3.0004  
    8.93200m    3.0004  
    8.93600m    3.0004  
    8.94000m    3.0004  
    8.94400m    3.0004  
    8.94800m    3.0004  
    8.95200m    3.0004  
    8.95600m    3.0004  
    8.96000m    3.0004  
    8.96400m    3.0004  
    8.96800m    3.0004  
    8.97200m    3.0004  
    8.97600m    3.0004  
    8.98000m    3.0004  
    8.98400m    3.0004  
    8.98800m    3.0005  
    8.99200m    3.0005  
    8.99600m    3.0005  
    9.00000m    3.0005  
    9.00400m    3.0005  
    9.00800m    3.0005  
    9.01200m    3.0005  
    9.01600m    3.0005  
    9.02000m    3.0005  
    9.02400m    3.0005  
    9.02800m    3.0005  
    9.03200m    3.0005  
    9.03600m    3.0005  
    9.04000m    3.0005  
    9.04400m    3.0006  
    9.04800m    3.0006  
    9.05200m    3.0006  
    9.05600m    3.0006  
    9.06000m    3.0006  
    9.06400m    3.0006  
    9.06800m    3.0006  
    9.07200m    3.0006  
    9.07600m    3.0006  
    9.08000m    3.0006  
    9.08400m    3.0006  
    9.08800m    3.0006  
    9.09200m    3.0006  
    9.09600m    3.0006  
    9.10000m    3.0006  
    9.10400m    3.0006  
    9.10800m    3.0006  
    9.11200m    3.0006  
    9.11600m    3.0006  
    9.12000m    3.0005  
    9.12400m    3.0005  
    9.12800m    3.0005  
    9.13200m    3.0005  
    9.13600m    3.0005  
    9.14000m    3.0004  
    9.14400m    3.0004  
    9.14800m    3.0004  
    9.15200m    3.0004  
    9.15600m    3.0004  
    9.16000m    3.0003  
    9.16400m    3.0003  
    9.16800m    3.0003  
    9.17200m    3.0003  
    9.17600m    3.0003  
    9.18000m    3.0002  
    9.18400m    3.0002  
    9.18800m    3.0002  
    9.19200m    3.0002  
    9.19600m    3.0002  
    9.20000m    3.0001  
    9.20400m    3.0001  
    9.20800m    3.0001  
    9.21200m    3.0001  
    9.21600m    3.0001  
    9.22000m    3.0000  
    9.22400m    3.0000  
    9.22800m    3.0000  
    9.23200m    3.0000  
    9.23600m    3.0000  
    9.24000m    2.9999  
    9.24400m    2.9999  
    9.24800m    2.9999  
    9.25200m    2.9999  
    9.25600m    2.9999  
    9.26000m    2.9999  
    9.26400m    2.9998  
    9.26800m    2.9998  
    9.27200m    2.9998  
    9.27600m    2.9998  
    9.28000m    2.9998  
    9.28400m    2.9997  
    9.28800m    2.9997  
    9.29200m    2.9997  
    9.29600m    2.9997  
    9.30000m    2.9997  
    9.30400m    2.9996  
    9.30800m    2.9996  
    9.31200m    2.9996  
    9.31600m    2.9996  
    9.32000m    2.9996  
    9.32400m    2.9995  
    9.32800m    2.9995  
    9.33200m    2.9995  
    9.33600m    2.9995  
    9.34000m    2.9995  
    9.34400m    2.9994  
    9.34800m    2.9994  
    9.35200m    2.9994  
    9.35600m    2.9994  
    9.36000m    2.9994  
    9.36400m    2.9993  
    9.36800m    2.9993  
    9.37200m    2.9993  
    9.37600m    2.9993  
    9.38000m    2.9994  
    9.38400m    2.9994  
    9.38800m    2.9994  
    9.39200m    2.9994  
    9.39600m    2.9994  
    9.40000m    2.9994  
    9.40400m    2.9994  
    9.40800m    2.9994  
    9.41200m    2.9994  
    9.41600m    2.9994  
    9.42000m    2.9995  
    9.42400m    2.9995  
    9.42800m    2.9995  
    9.43200m    2.9995  
    9.43600m    2.9995  
    9.44000m    2.9995  
    9.44400m    2.9995  
    9.44800m    2.9995  
    9.45200m    2.9995  
    9.45600m    2.9996  
    9.46000m    2.9996  
    9.46400m    2.9996  
    9.46800m    2.9996  
    9.47200m    2.9996  
    9.47600m    2.9996  
    9.48000m    2.9997  
    9.48400m    2.9997  
    9.48800m    2.9997  
    9.49200m    2.9997  
    9.49600m    2.9998  
    9.50000m    2.9998  
    9.50400m    2.9998  
    9.50800m    2.9998  
    9.51200m    2.9998  
    9.51600m    2.9999  
    9.52000m    2.9999  
    9.52400m    2.9999  
    9.52800m    2.9999  
    9.53200m    3.0000  
    9.53600m    3.0000  
    9.54000m    3.0000  
    9.54400m    3.0000  
    9.54800m    3.0000  
    9.55200m    3.0000  
    9.55600m    3.0000  
    9.56000m    3.0000  
    9.56400m    3.0000  
    9.56800m    3.0000  
    9.57200m    3.0000  
    9.57600m    3.0000  
    9.58000m    3.0000  
    9.58400m    3.0001  
    9.58800m    3.0001  
    9.59200m    3.0001  
    9.59600m    3.0001  
    9.60000m    3.0001  
    9.60400m    3.0001  
    9.60800m    3.0001  
    9.61200m    3.0001  
    9.61600m    3.0001  
    9.62000m    3.0001  
    9.62400m    3.0001  
    9.62800m    3.0001  
    9.63200m    3.0001  
    9.63600m    3.0001  
    9.64000m    3.0001  
    9.64400m    3.0001  
    9.64800m    3.0001  
    9.65200m    3.0001  
    9.65600m    3.0001  
    9.66000m    3.0001  
    9.66400m    3.0001  
    9.66800m    3.0001  
    9.67200m    3.0001  
    9.67600m    3.0001  
    9.68000m    3.0001  
    9.68400m    3.0001  
    9.68800m    3.0001  
    9.69200m    3.0001  
    9.69600m    3.0001  
    9.70000m    3.0001  
    9.70400m    3.0001  
    9.70800m    3.0001  
    9.71200m    3.0001  
    9.71600m    3.0001  
    9.72000m    3.0001  
    9.72400m    3.0001  
    9.72800m    3.0001  
    9.73200m    3.0001  
    9.73600m    3.0001  
    9.74000m    3.0001  
    9.74400m    3.0001  
    9.74800m    3.0002  
    9.75200m    3.0002  
    9.75600m    3.0002  
    9.76000m    3.0002  
    9.76400m    3.0002  
    9.76800m    3.0002  
    9.77200m    3.0002  
    9.77600m    3.0002  
    9.78000m    3.0002  
    9.78400m    3.0002  
    9.78800m    3.0002  
    9.79200m    3.0002  
    9.79600m    3.0002  
    9.80000m    3.0002  
    9.80400m    3.0002  
    9.80800m    3.0002  
    9.81200m    3.0002  
    9.81600m    3.0001  
    9.82000m    3.0001  
    9.82400m    3.0001  
    9.82800m    3.0001  
    9.83200m    3.0001  
    9.83600m    3.0001  
    9.84000m    3.0001  
    9.84400m    3.0001  
    9.84800m    3.0001  
    9.85200m    3.0001  
    9.85600m    3.0001  
    9.86000m    3.0001  
    9.86400m    3.0001  
    9.86800m    3.0001  
    9.87200m    3.0001  
    9.87600m    3.0000  
    9.88000m    3.0000  
    9.88400m    3.0000  
    9.88800m    3.0000  
    9.89200m    3.0000  
    9.89600m    3.0000  
    9.90000m    3.0000  
    9.90400m    3.0000  
    9.90800m    3.0000  
    9.91200m    3.0000  
    9.91600m    3.0000  
    9.92000m    3.0000  
    9.92400m    3.0000  
    9.92800m    3.0000  
    9.93200m    3.0000  
    9.93600m    3.0000  
    9.94000m    2.9999  
    9.94400m    2.9999  
    9.94800m    2.9999  
    9.95200m    2.9999  
    9.95600m    2.9999  
    9.96000m    2.9999  
    9.96400m    2.9999  
    9.96800m    2.9999  
    9.97200m    2.9999  
    9.97600m    2.9999  
    9.98000m    2.9999  
    9.98400m    2.9999  
    9.98800m    2.9999  
    9.99200m    2.9999  
    9.99600m    2.9999  
   10.00000m    2.9998  
   10.00400m    2.9998  
   10.00800m    2.9998  
   10.01200m    2.9998  
   10.01600m    2.9997  
   10.02000m    2.9997  
   10.02400m    2.9997  
   10.02800m    2.9997  
   10.03200m    2.9996  
   10.03600m    2.9996  
   10.04000m    2.9996  
   10.04400m    2.9996  
   10.04800m    2.9995  
   10.05200m    2.9995  
   10.05600m    2.9995  
   10.06000m    2.9994  
   10.06400m    2.9994  
   10.06800m    2.9994  
   10.07200m    2.9993  
   10.07600m    2.9992  
   10.08000m    2.9990  
   10.08400m    2.9989  
   10.08800m    2.9987  
   10.09200m    2.9985  
   10.09600m    2.9983  
   10.10000m    2.9981  
   10.10400m    2.9980  
   10.10800m    2.9978  
   10.11200m    2.9976  
   10.11600m    2.9974  
   10.12000m    2.9972  
   10.12400m    2.9971  
   10.12800m    2.9969  
   10.13200m    2.9967  
   10.13600m    2.9965  
   10.14000m    2.9964  
   10.14400m    2.9962  
   10.14800m    2.9960  
   10.15200m    2.9958  
   10.15600m    2.9956  
   10.16000m    2.9950  
   10.16400m    2.9941  
   10.16800m    2.9933  
   10.17200m    2.9925  
   10.17600m    2.9917  
   10.18000m    2.9909  
   10.18400m    2.9901  
   10.18800m    2.9892  
   10.19200m    2.9884  
   10.19600m    2.9876  
   10.20000m    2.9868  
   10.20400m    2.9860  
   10.20800m    2.9852  
   10.21200m    2.9843  
   10.21600m    2.9835  
   10.22000m    2.9827  
   10.22400m    2.9819  
   10.22800m    2.9811  
   10.23200m    2.9803  
   10.23600m    2.9794  
   10.24000m    2.9786  
   10.24400m    2.9778  
   10.24800m    2.9762  
   10.25200m    2.9729  
   10.25600m    2.9697  
   10.26000m    2.9664  
   10.26400m    2.9632  
   10.26800m    2.9599  
   10.27200m    2.9567  
   10.27600m    2.9534  
   10.28000m    2.9502  
   10.28400m    2.9469  
   10.28800m    2.9437  
   10.29200m    2.9404  
   10.29600m    2.9372  
   10.30000m    2.9340  
   10.30400m    2.9307  
   10.30800m    2.9275  
   10.31200m    2.9242  
   10.31600m    2.9210  
   10.32000m    2.9177  
   10.32400m    2.9145  
   10.32800m    2.9112  
   10.33200m    2.9080  
   10.33600m    2.9047  
   10.34000m    2.9015  
   10.34400m    2.8982  
   10.34800m    2.8950  
   10.35200m    2.8917  
   10.35600m    2.8885  
   10.36000m    2.8852  
   10.36400m    2.8820  
   10.36800m    2.8787  
   10.37200m    2.8755  
   10.37600m    2.8723  
   10.38000m    2.8690  
   10.38400m    2.8658  
   10.38800m    2.8607  
   10.39200m    2.8536  
   10.39600m    2.8465  
   10.40000m    2.8394  
   10.40400m    2.8322  
   10.40800m    2.8251  
   10.41200m    2.8180  
   10.41600m    2.8109  
   10.42000m    2.8038  
   10.42400m    2.7966  
   10.42800m    2.7895  
   10.43200m    2.7824  
   10.43600m    2.7753  
   10.44000m    2.7682  
   10.44400m    2.7610  
   10.44800m    2.7539  
   10.45200m    2.7468  
   10.45600m    2.7397  
   10.46000m    2.7325  
   10.46400m    2.7254  
   10.46800m    2.7183  
   10.47200m    2.7112  
   10.47600m    2.7041  
   10.48000m    2.6969  
   10.48400m    2.6898  
   10.48800m    2.6798  
   10.49200m    2.6687  
   10.49600m    2.6576  
   10.50000m    2.6466  
   10.50400m    2.6355  
   10.50800m    2.6244  
   10.51200m    2.6133  
   10.51600m    2.6022  
   10.52000m    2.5911  
   10.52400m    2.5800  
   10.52800m    2.5689  
   10.53200m    2.5578  
   10.53600m    2.5467  
   10.54000m    2.5356  
   10.54400m    2.5245  
   10.54800m    2.5134  
   10.55200m    2.5023  
   10.55600m    2.4912  
   10.56000m    2.4801  
   10.56400m    2.4691  
   10.56800m    2.4580  
   10.57200m    2.4469  
   10.57600m    2.4358  
   10.58000m    2.4247  
   10.58400m    2.4136  
   10.58800m    2.4025  
   10.59200m    2.3914  
   10.59600m    2.3803  
   10.60000m    2.3692  
   10.60400m    2.3581  
   10.60800m    2.3470  
   10.61200m    2.3359  
   10.61600m    2.3248  
   10.62000m    2.3137  
   10.62400m    2.3007  
   10.62800m    2.2870  
   10.63200m    2.2732  
   10.63600m    2.2595  
   10.64000m    2.2458  
   10.64400m    2.2320  
   10.64800m    2.2183  
   10.65200m    2.2045  
   10.65600m    2.1908  
   10.66000m    2.1770  
   10.66400m    2.1633  
   10.66800m    2.1495  
   10.67200m    2.1358  
   10.67600m    2.1220  
   10.68000m    2.1083  
   10.68400m    2.0946  
   10.68800m    2.0808  
   10.69200m    2.0671  
   10.69600m    2.0533  
   10.70000m    2.0396  
   10.70400m    2.0258  
   10.70800m    2.0121  
   10.71200m    1.9983  
   10.71600m    1.9846  
   10.72000m    1.9708  
   10.72400m    1.9571  
   10.72800m    1.9434  
   10.73200m    1.9296  
   10.73600m    1.9159  
   10.74000m    1.9021  
   10.74400m    1.8884  
   10.74800m    1.8746  
   10.75200m    1.8609  
   10.75600m    1.8469  
   10.76000m    1.8325  
   10.76400m    1.8181  
   10.76800m    1.8037  
   10.77200m    1.7893  
   10.77600m    1.7749  
   10.78000m    1.7604  
   10.78400m    1.7460  
   10.78800m    1.7316  
   10.79200m    1.7172  
   10.79600m    1.7028  
   10.80000m    1.6883  
   10.80400m    1.6739  
   10.80800m    1.6595  
   10.81200m    1.6451  
   10.81600m    1.6307  
   10.82000m    1.6163  
   10.82400m    1.6018  
   10.82800m    1.5874  
   10.83200m    1.5730  
   10.83600m    1.5586  
   10.84000m    1.5442  
   10.84400m    1.5297  
   10.84800m    1.5153  
   10.85200m    1.5009  
   10.85600m    1.4865  
   10.86000m    1.4721  
   10.86400m    1.4577  
   10.86800m    1.4432  
   10.87200m    1.4288  
   10.87600m    1.4144  
   10.88000m    1.4000  
   10.88400m    1.3856  
   10.88800m    1.3711  
   10.89200m    1.3564  
   10.89600m    1.3417  
   10.90000m    1.3270  
   10.90400m    1.3123  
   10.90800m    1.2976  
   10.91200m    1.2828  
   10.91600m    1.2681  
   10.92000m    1.2534  
   10.92400m    1.2387  
   10.92800m    1.2240  
   10.93200m    1.2093  
   10.93600m    1.1946  
   10.94000m    1.1799  
   10.94400m    1.1652  
   10.94800m    1.1504  
   10.95200m    1.1357  
   10.95600m    1.1210  
   10.96000m    1.1063  
   10.96400m    1.0916  
   10.96800m    1.0769  
   10.97200m    1.0622  
   10.97600m    1.0475  
   10.98000m    1.0327  
   10.98400m    1.0180  
   10.98800m    1.0033  
   10.99200m  988.6129m 
   10.99600m  973.9012m 
   11.00000m  959.1894m 
   11.00400m  944.1205m 
   11.00800m  929.0516m 
   11.01200m  913.9827m 
   11.01600m  898.9138m 
   11.02000m  883.8449m 
   11.02400m  868.7760m 
   11.02800m  853.7071m 
   11.03200m  838.6382m 
   11.03600m  823.5693m 
   11.04000m  808.5004m 
   11.04400m  793.4315m 
   11.04800m  778.3626m 
   11.05200m  763.2937m 
   11.05600m  748.2248m 
   11.06000m  733.1559m 
   11.06400m  718.0870m 
   11.06800m  703.0160m 
   11.07200m  687.9398m 
   11.07600m  672.8636m 
   11.08000m  657.7873m 
   11.08400m  642.7111m 
   11.08800m  627.6975m 
   11.09200m  612.7367m 
   11.09600m  597.7759m 
   11.10000m  582.8152m 
   11.10400m  567.8544m 
   11.10800m  552.8936m 
   11.11200m  537.9328m 
   11.11600m  522.9721m 
   11.12000m  508.0113m 
   11.12400m  493.0505m 
   11.12800m  478.0898m 
   11.13200m  463.1290m 
   11.13600m  448.1682m 
   11.14000m  433.2075m 
   11.14400m  418.2467m 
   11.14800m  403.6123m 
   11.15200m  389.4671m 
   11.15600m  375.3219m 
   11.16000m  361.1766m 
   11.16400m  347.0314m 
   11.16800m  332.8861m 
   11.17200m  318.7409m 
   11.17600m  304.5957m 
   11.18000m  290.4504m 
   11.18400m  276.3052m 
   11.18800m  262.1599m 
   11.19200m  248.0147m 
   11.19600m  233.8695m 
   11.20000m  219.7242m 
   11.20400m  205.5790m 
   11.20800m  191.4338m 
   11.21200m  177.2885m 
   11.21600m  163.1433m 
   11.22000m  148.9980m 
   11.22400m  134.8528m 
   11.22800m  120.7076m 
   11.23200m  106.5623m 
   11.23600m   94.4001m 
   11.24000m   83.3851m 
   11.24400m   72.3701m 
   11.24800m   61.3552m 
   11.25200m   50.3402m 
   11.25600m   39.3252m 
   11.26000m   28.3103m 
   11.26400m   17.2953m 
   11.26800m    6.2803m 
   11.27200m   -4.7346m 
   11.27600m  -15.7496m 
   11.28000m  -26.7646m 
   11.28400m  -37.7795m 
   11.28800m  -48.7945m 
   11.29200m  -59.8094m 
   11.29600m  -70.8244m 
   11.30000m  -81.8394m 
   11.30400m  -92.8543m 
   11.30800m -103.8693m 
   11.31200m -114.8843m 
   11.31600m -125.8992m 
   11.32000m -136.9142m 
   11.32400m -147.9292m 
   11.32800m -158.9441m 
   11.33200m -169.9591m 
   11.33600m -180.9740m 
   11.34000m -191.9890m 
   11.34400m -203.0040m 
   11.34800m -214.0189m 
   11.35200m -225.0339m 
   11.35600m -236.0489m 
   11.36000m -247.0638m 
   11.36400m -258.0788m 
   11.36800m -269.0938m 
   11.37200m -280.1087m 
   11.37600m -288.6046m 
   11.38000m -295.0021m 
   11.38400m -301.3995m 
   11.38800m -307.7970m 
   11.39200m -314.1945m 
   11.39600m -320.5920m 
   11.40000m -326.9895m 
   11.40400m -333.3869m 
   11.40800m -339.7844m 
   11.41200m -346.1819m 
   11.41600m -352.5794m 
   11.42000m -358.9769m 
   11.42400m -365.3743m 
   11.42800m -371.7718m 
   11.43200m -378.1693m 
   11.43600m -384.5668m 
   11.44000m -390.9643m 
   11.44400m -397.3617m 
   11.44800m -403.7592m 
   11.45200m -410.1567m 
   11.45600m -416.5542m 
   11.46000m -422.9517m 
   11.46400m -429.3491m 
   11.46800m -435.2204m 
   11.47200m -437.1176m 
   11.47600m -439.0148m 
   11.48000m -440.9120m 
   11.48400m -442.8092m 
   11.48800m -444.7064m 
   11.49200m -446.6036m 
   11.49600m -448.5008m 
   11.50000m -450.3980m 
   11.50400m -452.2952m 
   11.50800m -454.1924m 
   11.51200m -456.0895m 
   11.51600m -457.9867m 
   11.52000m -459.8839m 
   11.52400m -461.7811m 
   11.52800m -463.6783m 
   11.53200m -465.5755m 
   11.53600m -467.4727m 
   11.54000m -469.3699m 
   11.54400m -471.2671m 
   11.54800m -473.1643m 
   11.55200m -475.0615m 
   11.55600m -476.9587m 
   11.56000m -478.8558m 
   11.56400m -480.7530m 
   11.56800m -482.6502m 
   11.57200m -484.5474m 
   11.57600m -486.4446m 
   11.58000m -488.3418m 
   11.58400m -490.2390m 
   11.58800m -492.1362m 
   11.59200m -492.1307m 
   11.59600m -490.5683m 
   11.60000m -489.0059m 
   11.60400m -487.4435m 
   11.60800m -485.8811m 
   11.61200m -484.3187m 
   11.61600m -482.7563m 
   11.62000m -481.1938m 
   11.62400m -479.6314m 
   11.62800m -478.0690m 
   11.63200m -476.5066m 
   11.63600m -474.9442m 
   11.64000m -473.3818m 
   11.64400m -471.8194m 
   11.64800m -470.2569m 
   11.65200m -468.6945m 
   11.65600m -467.1321m 
   11.66000m -465.5697m 
   11.66400m -464.0073m 
   11.66800m -462.4449m 
   11.67200m -460.8825m 
   11.67600m -459.3200m 
   11.68000m -457.7576m 
   11.68400m -456.1952m 
   11.68800m -454.6328m 
   11.69200m -453.0704m 
   11.69600m -451.5080m 
   11.70000m -449.9456m 
   11.70400m -448.3831m 
   11.70800m -446.8207m 
   11.71200m -445.2583m 
   11.71600m -443.6959m 
   11.72000m -442.1335m 
   11.72400m -440.5711m 
   11.72800m -439.0087m 
   11.73200m -436.6572m 
   11.73600m -433.7888m 
   11.74000m -430.9204m 
   11.74400m -428.0520m 
   11.74800m -425.1836m 
   11.75200m -422.3151m 
   11.75600m -419.4467m 
   11.76000m -416.5783m 
   11.76400m -413.7099m 
   11.76800m -410.8415m 
   11.77200m -407.9730m 
   11.77600m -405.1046m 
   11.78000m -402.2362m 
   11.78400m -399.3678m 
   11.78800m -396.4994m 
   11.79200m -393.6309m 
   11.79600m -390.7625m 
   11.80000m -387.8941m 
   11.80400m -385.0257m 
   11.80800m -382.1573m 
   11.81200m -379.2889m 
   11.81600m -376.4204m 
   11.82000m -373.5520m 
   11.82400m -370.6836m 
   11.82800m -367.8152m 
   11.83200m -364.9468m 
   11.83600m -362.0783m 
   11.84000m -359.2099m 
   11.84400m -356.3415m 
   11.84800m -353.4731m 
   11.85200m -350.4704m 
   11.85600m -347.1065m 
   11.86000m -343.7426m 
   11.86400m -340.3786m 
   11.86800m -337.0147m 
   11.87200m -333.6508m 
   11.87600m -330.2868m 
   11.88000m -326.9229m 
   11.88400m -323.5590m 
   11.88800m -320.1950m 
   11.89200m -316.8311m 
   11.89600m -313.4672m 
   11.90000m -310.1032m 
   11.90400m -306.7393m 
   11.90800m -303.3754m 
[...]
   17.19200m -503.6299u 
   17.19600m -503.8328u 
   17.20000m -504.0356u 
   17.20400m -504.2385u 
   17.20800m -504.4413u 
   17.21200m -504.6442u 
   17.21600m -504.8470u 
   17.22000m -505.0499u 
   17.22400m -505.2528u 
   17.22800m -505.4556u 
   17.23200m -505.6585u 
   17.23600m -505.8613u 
   17.24000m -506.0642u 
   17.24400m -506.2670u 
   17.24800m -506.4699u 
   17.25200m -506.6728u 
   17.25600m -506.8756u 
   17.26000m -507.0785u 
   17.26400m -507.2813u 
   17.26800m -507.4842u 
   17.27200m -507.6870u 
   17.27600m -507.8899u 
   17.28000m -508.0928u 
   17.28400m -508.2956u 
   17.28800m -508.4985u 
   17.29200m -508.7013u 
   17.29600m -508.9042u 
   17.30000m -509.1071u 
   17.30400m -509.3099u 
   17.30800m -509.5128u 
   17.31200m -509.7156u 
   17.31600m -509.9185u 
   17.32000m -510.1213u 
   17.32400m -510.3242u 
   17.32800m -510.5271u 
   17.33200m -510.7299u 
   17.33600m -510.9328u 
   17.34000m -511.1356u 
   17.34400m -511.3385u 
   17.34800m -511.5413u 
   17.35200m -511.7442u 
   17.35600m -511.9471u 
   17.36000m -512.1499u 
   17.36400m -512.3528u 
   17.36800m -512.5556u 
   17.37200m -512.7585u 
   17.37600m -512.9613u 
   17.38000m -513.1642u 
   17.38400m -513.3671u 
   17.38800m -513.5699u 
   17.39200m -513.7728u 
   17.39600m -492.2011u 
   17.40000m -458.1848u 
   17.40400m -424.1685u 
   17.40800m -390.1522u 
   17.41200m -356.1359u 
   17.41600m -322.1196u 
   17.42000m -288.1033u 
   17.42400m -254.0870u 
   17.42800m -220.0707u 
   17.43200m -186.0544u 
   17.43600m -152.0381u 
   17.44000m -118.0218u 
   17.44400m  -84.0055u 
   17.44800m  -49.9892u 
   17.45200m  -15.9729u 
   17.45600m   18.0434u 
   17.46000m   52.0597u 
   17.46400m   86.0760u 
   17.46800m  120.0923u 
   17.47200m  154.1086u 
   17.47600m  188.1249u 
   17.48000m  192.4666u 
   17.48400m  191.0669u 
   17.48800m  189.6672u 
   17.49200m  188.2674u 
   17.49600m  186.8677u 
   17.50000m  185.4680u 
   17.50400m  184.0683u 
   17.50800m  182.6686u 
   17.51200m  181.2689u 
   17.51600m  179.8692u 
   17.52000m  178.4695u 
   17.52400m  177.0698u 
   17.52800m  175.6701u 
   17.53200m  174.2703u 
   17.53600m  172.8706u 
   17.54000m  171.4709u 
   17.54400m  170.0712u 
   17.54800m  168.6715u 
   17.55200m  167.2718u 
   17.55600m  165.8721u 
   17.56000m  164.4724u 
   17.56400m  163.0727u 
   17.56800m  161.6730u 
   17.57200m  160.2732u 
   17.57600m  158.8735u 
   17.58000m  157.4738u 
   17.58400m  156.0741u 
   17.58800m  154.6744u 
   17.59200m  153.2747u 
   17.59600m  151.8750u 
   17.60000m  150.4753u 
   17.60400m  149.0756u 
   17.60800m  147.6758u 
   17.61200m  146.2761u 
   17.61600m  144.8764u 
   17.62000m  143.4767u 
   17.62400m  142.0770u 
   17.62800m  140.6773u 
   17.63200m  139.2776u 
   17.63600m  137.8779u 
   17.64000m  136.4782u 
   17.64400m  135.0785u 
   17.64800m  133.6787u 
   17.65200m  132.2790u 
   17.65600m  130.8793u 
   17.66000m  129.4796u 
   17.66400m  128.0799u 
   17.66800m  126.6802u 
   17.67200m  125.2805u 
   17.67600m  123.8808u 
   17.68000m  122.4811u 
   17.68400m  121.0814u 
   17.68800m  119.6816u 
   17.69200m  118.2819u 
   17.69600m  116.8822u 
   17.70000m  115.4825u 
   17.70400m  114.0828u 
   17.70800m  112.6831u 
   17.71200m  111.2834u 
   17.71600m  109.8837u 
   17.72000m  108.4840u 
   17.72400m  107.0842u 
   17.72800m  105.6845u 
   17.73200m  104.2848u 
   17.73600m  102.8851u 
   17.74000m  101.4854u 
   17.74400m   92.5453u 
   17.74800m   64.4893u 
   17.75200m   36.4333u 
   17.75600m    8.3773u 
   17.76000m  -19.6787u 
   17.76400m  -47.7347u 
   17.76800m  -75.7907u 
   17.77200m -103.8466u 
   17.77600m -131.9026u 
   17.78000m -159.9586u 
   17.78400m -188.0146u 
   17.78800m -216.0706u 
   17.79200m -244.1266u 
   17.79600m -272.1826u 
   17.80000m -300.2386u 
   17.80400m -328.2946u 
   17.80800m -356.3506u 
   17.81200m -384.4065u 
   17.81600m -412.4625u 
   17.82000m -415.8991u 
   17.82400m -414.1794u 
   17.82800m -412.4596u 
   17.83200m -410.7399u 
   17.83600m -409.0201u 
   17.84000m -407.3004u 
   17.84400m -405.5806u 
   17.84800m -403.8609u 
   17.85200m -402.1411u 
   17.85600m -400.4214u 
   17.86000m -398.7016u 
   17.86400m -396.9819u 
   17.86800m -395.2621u 
   17.87200m -393.5424u 
   17.87600m -391.8226u 
   17.88000m -390.1029u 
   17.88400m -388.3831u 
   17.88800m -386.6634u 
   17.89200m -384.9436u 
   17.89600m -383.2239u 
   17.90000m -381.5041u 
   17.90400m -379.7844u 
   17.90800m -378.0646u 
   17.91200m -376.3449u 
   17.91600m -374.6251u 
   17.92000m -372.9054u 
   17.92400m -371.1856u 
   17.92800m -369.4659u 
   17.93200m -367.7461u 
   17.93600m -366.0264u 
   17.94000m -364.3066u 
   17.94400m -362.5869u 
   17.94800m -360.8671u 
   17.95200m -359.1474u 
   17.95600m -357.4276u 
   17.96000m -355.7079u 
   17.96400m -353.9881u 
   17.96800m -352.2684u 
   17.97200m -350.5486u 
   17.97600m -348.8289u 
   17.98000m -347.1091u 
   17.98400m -345.3894u 
   17.98800m -343.6696u 
   17.99200m -341.9499u 
   17.99600m -340.2301u 
   18.00000m -338.5104u 
   18.00400m -336.7906u 
   18.00800m -335.0709u 
   18.01200m -333.3511u 
   18.01600m -331.6314u 
   18.02000m -329.9116u 
   18.02400m -328.1919u 
   18.02800m -326.4721u 
   18.03200m -324.7524u 
   18.03600m -323.0326u 
   18.04000m -321.3129u 
   18.04400m -319.5931u 
   18.04800m -317.8734u 
   18.05200m -316.1536u 
   18.05600m -298.3744u 
   18.06000m -275.7295u 
   18.06400m -253.0846u 
   18.06800m -230.4397u 
   18.07200m -207.7948u 
   18.07600m -185.1499u 
   18.08000m -162.5050u 
   18.08400m -139.8601u 
   18.08800m -117.2152u 
   18.09200m  -94.5703u 
   18.09600m  -71.9254u 
   18.10000m  -49.2805u 
   18.10400m  -26.6356u 
   18.10800m   -3.9906u 
   18.11200m   18.6543u 
   18.11600m   41.2992u 
   18.12000m   63.9441u 
   18.12400m   86.5890u 
   18.12800m  109.2339u 
   18.13200m  131.8788u 
   18.13600m  134.6695u 
   18.14000m  136.7103u 
   18.14400m  138.7511u 
   18.14800m  140.7919u 
   18.15200m  142.8326u 
   18.15600m  144.8734u 
   18.16000m  146.9142u 
   18.16400m  148.9550u 
   18.16800m  150.9958u 
   18.17200m  153.0366u 
   18.17600m  155.0773u 
   18.18000m  157.1181u 
   18.18400m  159.1589u 
   18.18800m  161.1997u 
   18.19200m  163.2405u 
   18.19600m  165.2813u 
   18.20000m  167.3221u 
   18.20400m  169.3628u 
   18.20800m  171.4036u 
   18.21200m  173.4444u 
   18.21600m  175.4852u 
   18.22000m  177.5260u 
   18.22400m  179.5668u 
   18.22800m  181.6075u 
   18.23200m  183.6483u 
   18.23600m  185.6891u 
   18.24000m  187.7299u 
   18.24400m  189.7707u 
   18.24800m  191.8115u 
   18.25200m  193.8523u 
   18.25600m  195.8930u 
   18.26000m  197.9338u 
   18.26400m  199.9746u 
   18.26800m  202.0154u 
   18.27200m  204.0562u 
   18.27600m  206.0970u 
   18.28000m  208.1377u 
   18.28400m  210.1785u 
   18.28800m  212.2193u 
   18.29200m  214.2601u 
   18.29600m  216.3009u 
   18.30000m  218.3417u 
   18.30400m  220.3824u 
   18.30800m  222.4232u 
   18.31200m  224.4640u 
   18.31600m  226.5048u 
   18.32000m  228.5456u 
   18.32400m  230.5864u 
   18.32800m  232.6272u 
   18.33200m  234.6679u 
   18.33600m  236.7087u 
   18.34000m  238.7495u 
   18.34400m  240.7903u 
   18.34800m  242.8311u 
   18.35200m  244.8719u 
   18.35600m  246.9126u 
   18.36000m  248.9534u 
   18.36400m  250.9942u 
   18.36800m  253.0350u 
   18.37200m  255.0758u 
   18.37600m  257.1166u 
   18.38000m  259.1574u 
   18.38400m  261.1981u 
   18.38800m  255.2811u 
   18.39200m  243.8620u 
   18.39600m  232.4429u 
   18.40000m  221.0238u 
   18.40400m  209.6047u 
   18.40800m  198.1856u 
   18.41200m  186.7665u 
   18.41600m  175.3474u 
   18.42000m  163.9283u 
   18.42400m  152.5092u 
   18.42800m  141.0901u 
   18.43200m  129.6710u 
   18.43600m  118.2519u 
   18.44000m  106.8328u 
   18.44400m   95.4137u 
   18.44800m   83.9946u 
   18.45200m   72.5756u 
   18.45600m   61.1565u 
   18.46000m   49.7374u 
   18.46400m   38.3183u 
   18.46800m   26.8992u 
   18.47200m   15.4801u 
   18.47600m    8.8726u 
   18.48000m    7.6653u 
   18.48400m    6.4581u 
   18.48800m    5.2508u 
   18.49200m    4.0436u 
   18.49600m    2.8364u 
   18.50000m    1.6291u 
   18.50400m  421.8961n 
   18.50800m -785.3411n 
   18.51200m   -1.9926u 
   18.51600m   -3.1998u 
   18.52000m   -4.4071u 
   18.52400m   -5.6143u 
   18.52800m   -6.8215u 
   18.53200m   -8.0288u 
   18.53600m   -9.2360u 
   18.54000m  -10.4432u 
   18.54400m  -11.6505u 
   18.54800m  -12.8577u 
   18.55200m  -14.0650u 
   18.55600m  -15.2722u 
   18.56000m  -16.4794u 
   18.56400m  -17.6867u 
   18.56800m  -18.8939u 
   18.57200m  -20.1011u 
   18.57600m  -21.3084u 
   18.58000m  -22.5156u 
   18.58400m  -23.7228u 
   18.58800m  -24.9301u 
   18.59200m  -26.1373u 
   18.59600m  -27.3446u 
   18.60000m  -28.5518u 
   18.60400m  -29.7590u 
   18.60800m  -30.9663u 
   18.61200m  -32.1735u 
   18.61600m  -33.3807u 
   18.62000m  -34.5880u 
   18.62400m  -35.7952u 
   18.62800m  -37.0025u 
   18.63200m  -38.2097u 
   18.63600m  -39.4169u 
   18.64000m  -40.6242u 
   18.64400m  -41.8314u 
   18.64800m  -43.0386u 
   18.65200m  -44.2459u 
   18.65600m  -45.4531u 
   18.66000m  -46.6604u 
   18.66400m  -47.8676u 
   18.66800m  -49.0748u 
   18.67200m  -50.2821u 
   18.67600m  -51.4893u 
   18.68000m  -52.6965u 
   18.68400m  -53.9038u 
   18.68800m  -55.1110u 
   18.69200m  -56.3183u 
   18.69600m  -57.5255u 
   18.70000m  -58.7327u 
   18.70400m  -59.9400u 
   18.70800m  -61.1472u 
   18.71200m  -62.3544u 
   18.71600m  -63.5617u 
   18.72000m  -64.7689u 
   18.72400m  -65.9762u 
   18.72800m  -67.1834u 
   18.73200m  -68.3906u 
   18.73600m  -69.5979u 
   18.74000m  -70.8051u 
   18.74400m  -72.0123u 
   18.74800m  -73.2196u 
   18.75200m  -74.4268u 
   18.75600m  -75.6340u 
   18.76000m  -73.6336u 
   18.76400m  -70.1717u 
   18.76800m  -66.7099u 
   18.77200m  -63.2481u 
   18.77600m  -59.7863u 
   18.78000m  -56.3245u 
   18.78400m  -52.8626u 
   18.78800m  -49.4008u 
   18.79200m  -45.9390u 
   18.79600m  -42.4772u 
   18.80000m  -39.0153u 
   18.80400m  -35.5535u 
   18.80800m  -32.0917u 
   18.81200m  -28.6299u 
   18.81600m  -25.1680u 
   18.82000m  -21.7062u 
   18.82400m  -18.2444u 
   18.82800m  -14.7826u 
   18.83200m  -11.3208u 
   18.83600m   -7.8589u 
   18.84000m   -4.3971u 
   18.84400m -935.2826n 
   18.84800m    2.5265u 
   18.85200m    5.9884u 
   18.85600m    9.4502u 
   18.86000m   12.9120u 
   18.86400m   16.3738u 
   18.86800m   19.8357u 
   18.87200m   23.1634u 
   18.87600m   25.0245u 
   18.88000m   26.8855u 
   18.88400m   28.7466u 
   18.88800m   30.6077u 
   18.89200m   32.4688u 
   18.89600m   34.3298u 
   18.90000m   36.1909u 
   18.90400m   38.0520u 
   18.90800m   39.9130u 
   18.91200m   41.7741u 
   18.91600m   43.6352u 
   18.92000m   45.4963u 
   18.92400m   47.3573u 
   18.92800m   49.2184u 
   18.93200m   51.0795u 
   18.93600m   52.9406u 
   18.94000m   54.8016u 
   18.94400m   56.6627u 
   18.94800m   58.5238u 
   18.95200m   60.3849u 
   18.95600m   62.2459u 
   18.96000m   64.1070u 
   18.96400m   66.2279u 
   18.96800m   69.3802u 
   18.97200m   72.5326u 
   18.97600m   75.6850u 
   18.98000m   78.8373u 
   18.98400m   81.9897u 
   18.98800m   85.1421u 
   18.99200m   88.2944u 
   18.99600m   91.4468u 
   19.00000m   94.5992u 
   19.00400m   97.7515u 
   19.00800m  100.9039u 
   19.01200m  104.0562u 
   19.01600m  107.2086u 
   19.02000m  110.3610u 
   19.02400m  113.5133u 
   19.02800m  116.6657u 
   19.03200m  119.8181u 
   19.03600m  122.9704u 
   19.04000m  121.7282u 
   19.04400m  119.9710u 
   19.04800m  118.2138u 
   19.05200m  116.4565u 
   19.05600m  114.6993u 
   19.06000m  112.9421u 
   19.06400m  111.1849u 
   19.06800m  109.4277u 
   19.07200m  107.6705u 
   19.07600m  105.9133u 
   19.08000m  104.1561u 
   19.08400m  102.3989u 
   19.08800m  100.6416u 
   19.09200m   98.8844u 
   19.09600m   97.1272u 
   19.10000m   95.3700u 
   19.10400m   93.6128u 
   19.10800m   91.8556u 
   19.11200m   90.0984u 
   19.11600m   88.3412u 
   19.12000m   86.5840u 
   19.12400m   84.8267u 
   19.12800m   83.0695u 
   19.13200m   81.3123u 
   19.13600m   79.5551u 
   19.14000m   77.7979u 
   19.14400m   76.0407u 
   19.14800m   74.2835u 
   19.15200m   72.5263u 
   19.15600m   70.7690u 
   19.16000m   69.0118u 
   19.16400m   67.2546u 
   19.16800m   65.4974u 
   19.17200m   63.7402u 
   19.17600m   61.9830u 
   19.18000m   60.2258u 
   19.18400m   58.4686u 
   19.18800m   56.7114u 
   19.19200m   54.9541u 
   19.19600m   53.1969u 
   19.20000m   51.4397u 
   19.20400m   49.6825u 
   19.20800m   47.9253u 
   19.21200m   46.1681u 
   19.21600m   44.4109u 
   19.22000m   42.6537u 
   19.22400m   40.8965u 
   19.22800m   39.1392u 
   19.23200m   37.3820u 
   19.23600m   35.6248u 
   19.24000m   33.8676u 
   19.24400m   32.1104u 
   19.24800m   30.3532u 
   19.25200m   28.5960u 
   19.25600m   26.8388u 
   19.26000m   25.0816u 
   19.26400m   23.3243u 
   19.26800m   21.5671u 
   19.27200m   18.0251u 
   19.27600m   10.6141u 
   19.28000m    3.2030u 
   19.28400m   -4.2081u 
   19.28800m  -11.6191u 
   19.29200m  -19.0302u 
   19.29600m  -26.4413u 
   19.30000m  -33.8523u 
   19.30400m  -41.2634u 
   19.30800m  -48.6744u 
   19.31200m  -56.0855u 
   19.31600m  -63.4966u 
   19.32000m  -70.9076u 
   19.32400m  -78.3187u 
   19.32800m  -85.7298u 
   19.33200m  -93.1408u 
   19.33600m -100.5519u 
   19.34000m -107.9630u 
   19.34400m -115.3740u 
   19.34800m -122.7851u 
   19.35200m -130.1962u 
   19.35600m -136.7895u 
   19.36000m -135.6087u 
   19.36400m -134.4279u 
   19.36800m -133.2472u 
   19.37200m -132.0664u 
   19.37600m -130.8856u 
   19.38000m -129.7048u 
   19.38400m -128.5240u 
   19.38800m -127.3432u 
   19.39200m -126.1624u 
   19.39600m -124.9816u 
   19.40000m -123.8008u 
   19.40400m -122.6200u 
   19.40800m -121.4393u 
   19.41200m -120.2585u 
   19.41600m -119.0777u 
   19.42000m -117.8969u 
   19.42400m -116.7161u 
   19.42800m -115.5353u 
   19.43200m -114.3545u 
   19.43600m -113.1737u 
   19.44000m -111.9929u 
   19.44400m -110.8121u 
   19.44800m -109.6314u 
   19.45200m -108.4506u 
   19.45600m -107.2698u 
   19.46000m -106.0890u 
   19.46400m -104.9082u 
   19.46800m -103.7274u 
   19.47200m -102.5466u 
   19.47600m -101.3658u 
   19.48000m -100.1850u 
   19.48400m  -99.0042u 
   19.48800m  -97.8235u 
   19.49200m  -96.6427u 
   19.49600m  -95.4619u 
   19.50000m  -94.2811u 
   19.50400m  -93.1003u 
   19.50800m  -91.9195u 
   19.51200m  -90.7387u 
   19.51600m  -89.5579u 
   19.52000m  -88.3771u 
   19.52400m  -87.1963u 
   19.52800m  -86.0156u 
   19.53200m  -84.8348u 
   19.53600m  -83.6540u 
   19.54000m  -82.4732u 
   19.54400m  -81.2924u 
   19.54800m  -80.1116u 
   19.55200m  -78.9308u 
   19.55600m  -77.7500u 
   19.56000m  -76.5692u 
   19.56400m  -75.3884u 
   19.56800m  -74.2077u 
   19.57200m  -73.0269u 
   19.57600m  -71.8461u 
   19.58000m  -70.6653u 
   19.58400m  -69.4845u 
   19.58800m  -68.3037u 
   19.59200m  -67.1229u 
   19.59600m  -65.9421u 
   19.60000m  -64.7613u 
   19.60400m  -63.5805u 
   19.60800m  -62.3998u 
   19.61200m  -61.2190u 
   19.61600m  -60.0382u 
   19.62000m  -58.8574u 
   19.62400m  -57.6766u 
   19.62800m  -55.1697u 
   19.63200m  -46.9934u 
   19.63600m  -38.8171u 
   19.64000m  -30.6408u 
   19.64400m  -22.4645u 
   19.64800m  -14.2882u 
   19.65200m   -6.1119u 
   19.65600m    2.0644u 
   19.66000m   10.2408u 
   19.66400m   18.4171u 
   19.66800m   26.5934u 
   19.67200m   34.7697u 
   19.67600m   42.9460u 
   19.68000m   51.1223u 
   19.68400m   59.2986u 
   19.68800m   67.4750u 
   19.69200m   75.6513u 
   19.69600m   83.8276u 
   19.70000m   92.0039u 
   19.70400m  100.1802u 
   19.70800m  108.3565u 
   19.71200m  116.5328u 
   19.71600m  124.7092u 
   19.72000m  132.8855u 
   19.72400m  132.0851u 
   19.72800m  130.1997u 
   19.73200m  128.3143u 
   19.73600m  126.4289u 
   19.74000m  124.5436u 
   19.74400m  122.6582u 
   19.74800m  120.7728u 
   19.75200m  118.8874u 
   19.75600m  117.0021u 
   19.76000m  115.1167u 
   19.76400m  113.2313u 
   19.76800m  111.3459u 
   19.77200m  109.4606u 
   19.77600m  107.5752u 
   19.78000m  105.6898u 
   19.78400m  103.8045u 
   19.78800m  101.9191u 
   19.79200m  100.0337u 
   19.79600m   98.1483u 
   19.80000m   96.2630u 
   19.80400m   94.3776u 
   19.80800m   92.4922u 
   19.81200m   90.6068u 
   19.81600m   88.7215u 
   19.82000m   86.8361u 
   19.82400m   84.9507u 
   19.82800m   83.0653u 
   19.83200m   81.1800u 
   19.83600m   79.2946u 
   19.84000m   77.4092u 
   19.84400m   75.5238u 
   19.84800m   73.6385u 
   19.85200m   71.7531u 
   19.85600m   69.8677u 
   19.86000m   67.9823u 
   19.86400m   66.0970u 
   19.86800m   64.2116u 
   19.87200m   62.3262u 
   19.87600m   60.4409u 
   19.88000m   58.5555u 
   19.88400m   56.6701u 
   19.88800m   54.7847u 
   19.89200m   52.8994u 
   19.89600m   51.0140u 
   19.90000m   49.1286u 
   19.90400m   47.2432u 
   19.90800m   45.3579u 
   19.91200m   43.4725u 
   19.91600m   41.5871u 
   19.92000m   39.7017u 
   19.92400m   37.8164u 
   19.92800m   35.9310u 
   19.93200m   34.0456u 
   19.93600m   32.1602u 
   19.94000m   30.2749u 
   19.94400m   28.3895u 
   19.94800m   26.5041u 
   19.95200m   24.6188u 
   19.95600m   22.7334u 
   19.96000m   20.8480u 
   19.96400m   18.9626u 
   19.96800m   17.0773u 
   19.97200m   15.1919u 
   19.97600m   13.3065u 
   19.98000m   11.4211u 
   19.98400m    9.5358u 
   19.98800m    7.6504u 
   19.99200m    5.7650u 
   19.99600m    3.8796u 
   20.00000m    1.9943u 
y

          ***** job concluded
 ******  
 * example rlc-3

 ****** job statistics summary tnom=  25.000 temp=  25.000 ******

  ******  HSPICE Threads Information  ******

  Command Line Threads Count :     1
  Available CPU Count        :     8
  Actual Threads Count       :     1


  ******  Circuit Statistics  ******
  # nodes       =       8 # elements   =      11
  # resistors   =       3 # capacitors =       4 # inductors   =       3
  # mutual_inds =       0 # vccs       =       0 # vcvs        =       0
  # cccs        =       0 # ccvs       =       0 # volt_srcs   =       1
  # curr_srcs   =       0 # diodes     =       0 # bjts        =       0
  # jfets       =       0 # mosfets    =       0 # U elements  =       0
  # T elements  =       0 # W elements =       0 # B elements  =       0
  # S elements  =       0 # P elements =       0 # va device   =       0
  # vector_srcs =       0 # N elements =       0


  ******  Runtime Statistics (seconds)  ******

  analysis           time    # points   tot. iter  conv.iter
  op point           0.00           1           4
  transient          0.00        5001         310         155 rev=        25
  readin             0.03
  errchk             0.01
  setup              0.00
  output             0.00


           peak memory used         71.93 megabytes
           total cpu time            0.08 seconds
           total elapsed time        1.27 seconds
           job started at     16:03:53 11/27/2022
           job ended   at     16:03:55 11/27/2022
           job total runtime         1.27 seconds


  lic: Release hspice token(s) 
 lic: total license checkout elapse time:        1.16(s)
