 ****** HSPICE -- P-2019.06-SP1-1 win64 (Sep 27 2019) ******                    
  Copyright (c) 1986 - 2022 by Synopsys, Inc. All Rights Reserved.              
  This software and the associated documentation are proprietary
  to Synopsys, Inc. This software may only be used in accordance
  with the terms and conditions of a written license agreement with
  Synopsys, Inc. All other use, reproduction, or distribution of
  this software is strictly prohibited.
  Input File: RLC_s3.sp                                                         
  Command line options: C:\synopsys\Hspice_P-2019.06-SP1-1\WIN64\hspice.com -i RLC_s3.sp -o D:\workspace\circuit_analysis\project3-5\Benchmark\RLC_s3.lis
  Start time: Tue Nov  8 18:30:20 2022
  lic:  
  lic: FLEXlm: SDK_12.3 
  lic: USER:   44919                HOSTNAME: CZJ 
  lic: HOSTID: "00155df60778"       PID:      2156 
  lic: Using FLEXlm license file: 
  lic: 27000@CZJ 
  lic: Checkout 1 hspice 
  lic: License/Maintenance for hspice will expire on 30-dec-2030/2030.12 
  lic: 1(in_use)/99(total) FLOATING license(s) on SERVER 27000@CZJ 
  lic:   
1****** HSPICE -- P-2019.06-SP1-1 win64 (Sep 27 2019) ******                    
 ******  
 * example rlc-3

 ****** circuit name directory
 circuit number to circuit name directory
   number circuitname                     definition         multiplier
        0 main circuit
        1 x1.                             seg                1.00 
        2 x2.                             seg                1.00 
        3 x3.                             seg                1.00 
  **info** (RLC_s3.sp:4) DC voltage reset to initial transient source value in source 0:vin. new dc=0.0000D+00
  
      
 *****************************************************************
 ******  option summary
 ******
 runlvl  = 3         bypass  = 2.0000    

 **info** rebuilding matrix with pivot option

 **info** dc convergence successful at Newton-Raphson method 
 ******  
 * example rlc-3

 ****** operating point information tnom=  25.000 temp=  25.000 ******
 ****** operating point status is voltage   simulation time is     0.     
    node    =voltage      node    =voltage      node    =voltage

 +0:n_in1   =   0.      0:n_in2   =   0.      0:n_in3   =   0.     
 +0:n_out   =   0.      1:n_1     =   0.      2:n_1     =   0.     
 +3:n_1     =   0.     

 ******
 * example rlc-3

 ****** transient analysis tnom=  25.000 temp=  25.000 ******
x

 time         voltage   
             n_out      
    0.          0.      
    4.00000u  499.3661f 
    8.00000u  332.4096p 
   12.00000u  806.1551p 
   16.00000u   52.9408n 
   20.00000u  422.4210n 
   24.00000u  791.9012n 
   28.00000u    1.1614u 
   32.00000u    1.5309u 
   36.00000u    1.9003u 
   40.00000u    2.2698u 
   44.00000u    2.6393u 
   48.00000u    3.0088u 
   52.00000u   77.7947u 
   56.00000u  156.6625u 
   60.00000u  235.5303u 
   64.00000u  314.3981u 
   68.00000u  393.2660u 
   72.00000u  472.1338u 
   76.00000u  551.0016u 
   80.00000u  629.8694u 
   84.00000u  708.7372u 
   88.00000u  787.6050u 
   92.00000u  866.4729u 
   96.00000u  945.3407u 
  100.00000u    1.0242m 
  104.00000u    1.1031m 
  108.00000u    1.1819m 
  112.00000u    1.2608m 
  116.00000u    1.3397m 
  120.00000u    1.4185m 
  124.00000u    1.4974m 
  128.00000u    1.5763m 
  132.00000u    1.6552m 
  136.00000u    1.7340m 
  140.00000u    2.0124m 
  144.00000u    2.6035m 
  148.00000u    3.1946m 
  152.00000u    3.7857m 
  156.00000u    4.3768m 
  160.00000u    4.9679m 
  164.00000u    5.5590m 
  168.00000u    6.1501m 
  172.00000u    6.7412m 
  176.00000u    7.3323m 
  180.00000u    7.9234m 
  184.00000u    8.5145m 
  188.00000u    9.1056m 
  192.00000u    9.6967m 
  196.00000u   10.2877m 
  200.00000u   10.8788m 
  204.00000u   11.4699m 
  208.00000u   12.0610m 
  212.00000u   12.6521m 
  216.00000u   13.2432m 
  220.00000u   13.8343m 
  224.00000u   14.4254m 
  228.00000u   15.4960m 
  232.00000u   18.3607m 
  236.00000u   21.2254m 
  240.00000u   24.0901m 
  244.00000u   26.9547m 
  248.00000u   29.8194m 
  252.00000u   32.6841m 
  256.00000u   35.5488m 
  260.00000u   38.4135m 
  264.00000u   41.2782m 
  268.00000u   44.1429m 
  272.00000u   47.0076m 
  276.00000u   49.8722m 
  280.00000u   52.7369m 
  284.00000u   55.6016m 
  288.00000u   58.4663m 
  292.00000u   61.3310m 
  296.00000u   64.1957m 
  300.00000u   67.0604m 
  304.00000u   69.9250m 
  308.00000u   72.7897m 
  312.00000u   75.6544m 
  316.00000u   78.5191m 
  320.00000u   81.3838m 
  324.00000u   84.2485m 
  328.00000u   87.1132m 
  332.00000u   89.9779m 
  336.00000u   92.8425m 
  340.00000u   95.7072m 
  344.00000u   98.5719m 
  348.00000u  101.4366m 
  352.00000u  106.7915m 
  356.00000u  113.7592m 
  360.00000u  120.7268m 
  364.00000u  127.6945m 
  368.00000u  134.6622m 
  372.00000u  141.6298m 
  376.00000u  148.5975m 
  380.00000u  155.5652m 
  384.00000u  162.5328m 
  388.00000u  169.5005m 
  392.00000u  176.4682m 
  396.00000u  183.4358m 
  400.00000u  190.4035m 
  404.00000u  197.3712m 
  408.00000u  204.3388m 
  412.00000u  211.3065m 
  416.00000u  218.2742m 
  420.00000u  225.2418m 
  424.00000u  232.2095m 
  428.00000u  239.1772m 
  432.00000u  246.1448m 
  436.00000u  253.1125m 
  440.00000u  260.0802m 
  444.00000u  269.9936m 
  448.00000u  281.7029m 
  452.00000u  293.4123m 
  456.00000u  305.1217m 
  460.00000u  316.8311m 
  464.00000u  328.5405m 
  468.00000u  340.2498m 
  472.00000u  351.9592m 
  476.00000u  363.6686m 
  480.00000u  375.3780m 
  484.00000u  387.0873m 
  488.00000u  398.7967m 
  492.00000u  410.5061m 
  496.00000u  422.2155m 
  500.00000u  433.9249m 
  504.00000u  445.6342m 
  508.00000u  457.3436m 
  512.00000u  469.0530m 
  516.00000u  480.7624m 
  520.00000u  492.4718m 
  524.00000u  504.1811m 
  528.00000u  515.8905m 
  532.00000u  527.5999m 
  536.00000u  539.3093m 
  540.00000u  551.0186m 
  544.00000u  562.7280m 
  548.00000u  574.4374m 
  552.00000u  587.4940m 
  556.00000u  602.7641m 
  560.00000u  618.0342m 
  564.00000u  633.3044m 
  568.00000u  648.5745m 
  572.00000u  663.8446m 
  576.00000u  679.1147m 
  580.00000u  694.3848m 
  584.00000u  709.6549m 
  588.00000u  724.9251m 
  592.00000u  740.1952m 
  596.00000u  755.4653m 
  600.00000u  770.7354m 
  604.00000u  786.0055m 
  608.00000u  801.2757m 
  612.00000u  816.5458m 
  616.00000u  831.8159m 
  620.00000u  847.0860m 
  624.00000u  862.3561m 
  628.00000u  877.6262m 
  632.00000u  892.8964m 
  636.00000u  908.1665m 
  640.00000u  923.4366m 
  644.00000u  938.7067m 
  648.00000u  953.9768m 
  652.00000u  969.2470m 
  656.00000u  984.5171m 
  660.00000u    1.0006  
  664.00000u    1.0169  
  668.00000u    1.0331  
  672.00000u    1.0493  
  676.00000u    1.0655  
  680.00000u    1.0818  
  684.00000u    1.0980  
  688.00000u    1.1142  
  692.00000u    1.1304  
  696.00000u    1.1466  
  700.00000u    1.1629  
  704.00000u    1.1791  
  708.00000u    1.1953  
  712.00000u    1.2115  
  716.00000u    1.2277  
  720.00000u    1.2440  
  724.00000u    1.2602  
  728.00000u    1.2764  
  732.00000u    1.2926  
  736.00000u    1.3089  
  740.00000u    1.3251  
  744.00000u    1.3413  
  748.00000u    1.3575  
  752.00000u    1.3734  
  756.00000u    1.3891  
  760.00000u    1.4047  
  764.00000u    1.4203  
  768.00000u    1.4360  
  772.00000u    1.4516  
  776.00000u    1.4672  
  780.00000u    1.4829  
  784.00000u    1.4985  
  788.00000u    1.5141  
  792.00000u    1.5298  
  796.00000u    1.5454  
  800.00000u    1.5610  
  804.00000u    1.5767  
  808.00000u    1.5923  
  812.00000u    1.6078  
  816.00000u    1.6233  
  820.00000u    1.6388  
  824.00000u    1.6543  
  828.00000u    1.6698  
  832.00000u    1.6853  
  836.00000u    1.7009  
  840.00000u    1.7164  
  844.00000u    1.7318  
  848.00000u    1.7469  
  852.00000u    1.7619  
  856.00000u    1.7770  
  860.00000u    1.7921  
  864.00000u    1.8072  
  868.00000u    1.8223  
  872.00000u    1.8374  
  876.00000u    1.8525  
  880.00000u    1.8676  
  884.00000u    1.8827  
  888.00000u    1.8977  
  892.00000u    1.9128  
  896.00000u    1.9279  
  900.00000u    1.9430  
  904.00000u    1.9581  
  908.00000u    1.9732  
  912.00000u    1.9883  
  916.00000u    2.0034  
  920.00000u    2.0185  
  924.00000u    2.0335  
  928.00000u    2.0486  
  932.00000u    2.0637  
  936.00000u    2.0788  
  940.00000u    2.0939  
  944.00000u    2.1090  
  948.00000u    2.1241  
  952.00000u    2.1392  
  956.00000u    2.1539  
  960.00000u    2.1681  
  964.00000u    2.1823  
  968.00000u    2.1966  
  972.00000u    2.2108  
  976.00000u    2.2250  
  980.00000u    2.2392  
  984.00000u    2.2534  
  988.00000u    2.2677  
  992.00000u    2.2819  
  996.00000u    2.2961  
    1.00000m    2.3103  
    1.00400m    2.3245  
    1.00800m    2.3388  
    1.01200m    2.3530  
    1.01600m    2.3672  
    1.02000m    2.3814  
    1.02400m    2.3956  
    1.02800m    2.4099  
    1.03200m    2.4241  
    1.03600m    2.4383  
    1.04000m    2.4525  
    1.04400m    2.4667  
    1.04800m    2.4810  
    1.05200m    2.4952  
    1.05600m    2.5094  
    1.06000m    2.5236  
    1.06400m    2.5378  
    1.06800m    2.5521  
    1.07200m    2.5663  
    1.07600m    2.5805  
    1.08000m    2.5929  
    1.08400m    2.6052  
    1.08800m    2.6175  
    1.09200m    2.6298  
    1.09600m    2.6421  
    1.10000m    2.6544  
    1.10400m    2.6667  
    1.10800m    2.6789  
    1.11200m    2.6912  
    1.11600m    2.7035  
    1.12000m    2.7158  
    1.12400m    2.7281  
    1.12800m    2.7404  
    1.13200m    2.7527  
    1.13600m    2.7650  
    1.14000m    2.7772  
    1.14400m    2.7895  
    1.14800m    2.8018  
    1.15200m    2.8141  
    1.15600m    2.8264  
    1.16000m    2.8387  
    1.16400m    2.8510  
    1.16800m    2.8633  
    1.17200m    2.8755  
    1.17600m    2.8878  
    1.18000m    2.9001  
    1.18400m    2.9124  
    1.18800m    2.9247  
    1.19200m    2.9370  
    1.19600m    2.9493  
    1.20000m    2.9616  
    1.20400m    2.9726  
    1.20800m    2.9828  
    1.21200m    2.9930  
    1.21600m    3.0031  
    1.22000m    3.0133  
    1.22400m    3.0235  
    1.22800m    3.0337  
    1.23200m    3.0439  
    1.23600m    3.0541  
    1.24000m    3.0642  
    1.24400m    3.0744  
    1.24800m    3.0846  
    1.25200m    3.0931  
    1.25600m    3.1000  
    1.26000m    3.1069  
    1.26400m    3.1137  
    1.26800m    3.1206  
    1.27200m    3.1275  
    1.27600m    3.1344  
    1.28000m    3.1412  
    1.28400m    3.1481  
    1.28800m    3.1550  
    1.29200m    3.1619  
    1.29600m    3.1687  
    1.30000m    3.1756  
    1.30400m    3.1825  
    1.30800m    3.1894  
    1.31200m    3.1962  
    1.31600m    3.2031  
    1.32000m    3.2100  
    1.32400m    3.2169  
    1.32800m    3.2237  
    1.33200m    3.2301  
    1.33600m    3.2365  
    1.34000m    3.2429  
    1.34400m    3.2493  
    1.34800m    3.2557  
    1.35200m    3.2621  
    1.35600m    3.2684  
    1.36000m    3.2728  
    1.36400m    3.2773  
    1.36800m    3.2818  
    1.37200m    3.2863  
    1.37600m    3.2908  
    1.38000m    3.2953  
    1.38400m    3.2998  
    1.38800m    3.3043  
    1.39200m    3.3088  
    1.39600m    3.3133  
    1.40000m    3.3178  
    1.40400m    3.3222  
    1.40800m    3.3267  
    1.41200m    3.3312  
    1.41600m    3.3357  
    1.42000m    3.3402  
    1.42400m    3.3447  
    1.42800m    3.3492  
    1.43200m    3.3537  
    1.43600m    3.3582  
    1.44000m    3.3627  
    1.44400m    3.3672  
    1.44800m    3.3704  
    1.45200m    3.3718  
    1.45600m    3.3732  
    1.46000m    3.3746  
    1.46400m    3.3761  
    1.46800m    3.3775  
    1.47200m    3.3789  
    1.47600m    3.3803  
    1.48000m    3.3817  
    1.48400m    3.3832  
    1.48800m    3.3846  
    1.49200m    3.3860  
    1.49600m    3.3874  
    1.50000m    3.3889  
    1.50400m    3.3903  
    1.50800m    3.3917  
    1.51200m    3.3931  
    1.51600m    3.3945  
    1.52000m    3.3960  
    1.52400m    3.3974  
    1.52800m    3.3988  
    1.53200m    3.4002  
    1.53600m    3.4016  
    1.54000m    3.4031  
    1.54400m    3.4045  
    1.54800m    3.4059  
    1.55200m    3.4073  
    1.55600m    3.4088  
    1.56000m    3.4102  
    1.56400m    3.4084  
    1.56800m    3.4064  
    1.57200m    3.4044  
    1.57600m    3.4024  
    1.58000m    3.4005  
    1.58400m    3.3985  
    1.58800m    3.3965  
    1.59200m    3.3945  
    1.59600m    3.3925  
    1.60000m    3.3905  
    1.60400m    3.3885  
    1.60800m    3.3865  
    1.61200m    3.3845  
    1.61600m    3.3825  
    1.62000m    3.3806  
    1.62400m    3.3786  
    1.62800m    3.3766  
    1.63200m    3.3746  
    1.63600m    3.3726  
    1.64000m    3.3706  
    1.64400m    3.3686  
    1.64800m    3.3666  
    1.65200m    3.3646  
    1.65600m    3.3626  
    1.66000m    3.3606  
    1.66400m    3.3587  
    1.66800m    3.3567  
    1.67200m    3.3547  
    1.67600m    3.3527  
    1.68000m    3.3507  
    1.68400m    3.3487  
    1.68800m    3.3467  
    1.69200m    3.3447  
    1.69600m    3.3427  
    1.70000m    3.3407  
    1.70400m    3.3387  
    1.70800m    3.3363  
    1.71200m    3.3321  
    1.71600m    3.3278  
    1.72000m    3.3235  
    1.72400m    3.3193  
    1.72800m    3.3150  
    1.73200m    3.3107  
    1.73600m    3.3065  
    1.74000m    3.3022  
    1.74400m    3.2980  
    1.74800m    3.2937  
    1.75200m    3.2884  
    1.75600m    3.2821  
    1.76000m    3.2758  
    1.76400m    3.2695  
    1.76800m    3.2632  
    1.77200m    3.2569  
    1.77600m    3.2506  
    1.78000m    3.2443  
    1.78400m    3.2379  
    1.78800m    3.2316  
    1.79200m    3.2253  
    1.79600m    3.2190  
    1.80000m    3.2127  
    1.80400m    3.2064  
    1.80800m    3.2001  
    1.81200m    3.1938  
    1.81600m    3.1875  
    1.82000m    3.1810  
    1.82400m    3.1743  
    1.82800m    3.1676  
    1.83200m    3.1609  
    1.83600m    3.1542  
    1.84000m    3.1475  
    1.84400m    3.1408  
    1.84800m    3.1340  
    1.85200m    3.1273  
    1.85600m    3.1197  
    1.86000m    3.1114  
    1.86400m    3.1031  
    1.86800m    3.0947  
    1.87200m    3.0864  
    1.87600m    3.0780  
    1.88000m    3.0697  
    1.88400m    3.0613  
    1.88800m    3.0530  
    1.89200m    3.0447  
    1.89600m    3.0363  
    1.90000m    3.0280  
    1.90400m    3.0196  
    1.90800m    3.0113  
    1.91200m    3.0030  
    1.91600m    2.9946  
    1.92000m    2.9863  
    1.92400m    2.9779  
    1.92800m    2.9696  
    1.93200m    2.9612  
    1.93600m    2.9529  
    1.94000m    2.9446  
    1.94400m    2.9362  
    1.94800m    2.9279  
    1.95200m    2.9195  
    1.95600m    2.9112  
    1.96000m    2.9028  
    1.96400m    2.8945  
    1.96800m    2.8857  
    1.97200m    2.8750  
    1.97600m    2.8643  
    1.98000m    2.8536  
    1.98400m    2.8429  
    1.98800m    2.8322  
    1.99200m    2.8215  
    1.99600m    2.8107  
    2.00000m    2.8000  
    2.00400m    2.7893  
    2.00800m    2.7786  
    2.01200m    2.7679  
    2.01600m    2.7572  
    2.02000m    2.7465  
    2.02400m    2.7358  
    2.02800m    2.7250  
    2.03200m    2.7143  
    2.03600m    2.7036  
    2.04000m    2.6929  
    2.04400m    2.6822  
    2.04800m    2.6715  
    2.05200m    2.6608  
    2.05600m    2.6501  
    2.06000m    2.6393  
    2.06400m    2.6286  
    2.06800m    2.6179  
    2.07200m    2.6072  
    2.07600m    2.5965  
    2.08000m    2.5858  
    2.08400m    2.5751  
    2.08800m    2.5644  
    2.09200m    2.5536  
    2.09600m    2.5429  
    2.10000m    2.5306  
    2.10400m    2.5174  
    2.10800m    2.5042  
    2.11200m    2.4910  
    2.11600m    2.4778  
    2.12000m    2.4646  
    2.12400m    2.4513  
    2.12800m    2.4381  
    2.13200m    2.4249  
    2.13600m    2.4117  
    2.14000m    2.3985  
    2.14400m    2.3853  
    2.14800m    2.3721  
    2.15200m    2.3589  
    2.15600m    2.3457  
    2.16000m    2.3324  
    2.16400m    2.3192  
    2.16800m    2.3060  
    2.17200m    2.2928  
    2.17600m    2.2796  
    2.18000m    2.2664  
    2.18400m    2.2532  
    2.18800m    2.2400  
    2.19200m    2.2267  
    2.19600m    2.2135  
    2.20000m    2.2003  
    2.20400m    2.1871  
    2.20800m    2.1739  
    2.21200m    2.1607  
    2.21600m    2.1475  
    2.22000m    2.1343  
    2.22400m    2.1211  
    2.22800m    2.1078  
    2.23200m    2.0946  
    2.23600m    2.0814  
    2.24000m    2.0682  
    2.24400m    2.0550  
    2.24800m    2.0418  
    2.25200m    2.0286  
    2.25600m    2.0154  
    2.26000m    2.0021  
    2.26400m    1.9889  
    2.26800m    1.9757  
    2.27200m    1.9625  
    2.27600m    1.9493  
    2.28000m    1.9361  
    2.28400m    1.9229  
    2.28800m    1.9097  
    2.29200m    1.8964  
    2.29600m    1.8832  
    2.30000m    1.8700  
    2.30400m    1.8568  
    2.30800m    1.8436  
    2.31200m    1.8304  
    2.31600m    1.8172  
    2.32000m    1.8040  
    2.32400m    1.7908  
    2.32800m    1.7775  
    2.33200m    1.7643  
    2.33600m    1.7511  
    2.34000m    1.7379  
    2.34400m    1.7231  
    2.34800m    1.7080  
    2.35200m    1.6928  
    2.35600m    1.6777  
    2.36000m    1.6626  
    2.36400m    1.6474  
    2.36800m    1.6323  
    2.37200m    1.6171  
    2.37600m    1.6020  
    2.38000m    1.5868  
    2.38400m    1.5717  
    2.38800m    1.5566  
    2.39200m    1.5414  
    2.39600m    1.5263  
    2.40000m    1.5111  
    2.40400m    1.4960  
    2.40800m    1.4809  
    2.41200m    1.4657  
    2.41600m    1.4506  
    2.42000m    1.4354  
    2.42400m    1.4203  
    2.42800m    1.4051  
    2.43200m    1.3900  
    2.43600m    1.3749  
    2.44000m    1.3597  
    2.44400m    1.3446  
    2.44800m    1.3294  
    2.45200m    1.3143  
    2.45600m    1.2992  
    2.46000m    1.2840  
    2.46400m    1.2689  
    2.46800m    1.2537  
    2.47200m    1.2386  
    2.47600m    1.2235  
    2.48000m    1.2083  
    2.48400m    1.1932  
    2.48800m    1.1780  
    2.49200m    1.1629  
    2.49600m    1.1477  
    2.50000m    1.1326  
    2.50400m    1.1164  
    2.50800m    1.1002  
    2.51200m    1.0840  
    2.51600m    1.0678  
    2.52000m    1.0516  
    2.52400m    1.0354  
    2.52800m    1.0192  
    2.53200m    1.0030  
    2.53600m  986.8367m 
    2.54000m  970.6406m 
    2.54400m  954.4445m 
    2.54800m  938.2484m 
    2.55200m  922.0523m 
    2.55600m  905.8562m 
    2.56000m  889.6602m 
    2.56400m  873.4641m 
    2.56800m  857.2680m 
    2.57200m  841.0719m 
    2.57600m  824.8758m 
    2.58000m  808.6798m 
    2.58400m  792.4837m 
    2.58800m  776.2876m 
    2.59200m  760.0915m 
    2.59600m  743.8954m 
    2.60000m  727.6994m 
    2.60400m  711.5033m 
    2.60800m  695.3072m 
    2.61200m  679.1111m 
    2.61600m  662.9150m 
    2.62000m  646.7190m 
    2.62400m  630.4439m 
    2.62800m  614.1506m 
    2.63200m  597.8574m 
    2.63600m  581.5642m 
    2.64000m  565.2710m 
    2.64400m  548.9778m 
    2.64800m  532.6846m 
    2.65200m  516.3913m 
    2.65600m  500.0981m 
    2.66000m  483.8049m 
    2.66400m  467.5117m 
    2.66800m  451.2185m 
    2.67200m  434.9252m 
    2.67600m  418.6320m 
    2.68000m  402.3388m 
    2.68400m  386.0111m 
    2.68800m  369.6513m 
    2.69200m  353.2916m 
    2.69600m  336.9318m 
    2.70000m  320.5721m 
    2.70400m  304.2123m 
    2.70800m  287.8525m 
    2.71200m  271.4928m 
    2.71600m  255.1330m 
    2.72000m  238.7732m 
    2.72400m  222.4135m 
    2.72800m  206.0537m 
    2.73200m  189.6940m 
    2.73600m  173.3342m 
    2.74000m  156.9744m 
    2.74400m  140.6147m 
    2.74800m  124.2549m 
    2.75200m  107.8951m 
    2.75600m   91.5354m 
    2.76000m   75.1756m 
    2.76400m   58.8159m 
    2.76800m   42.4561m 
    2.77200m   26.0963m 
    2.77600m    9.7366m 
    2.78000m   -6.6232m 
    2.78400m  -22.9830m 
    2.78800m  -39.3427m 
    2.79200m  -55.7025m 
    2.79600m  -72.0622m 
    2.80000m  -88.4220m 
    2.80400m -104.7818m 
    2.80800m -121.1415m 
    2.81200m -137.5013m 
    2.81600m -153.8611m 
    2.82000m -170.2208m 
    2.82400m -186.5806m 
    2.82800m -202.9403m 
    2.83200m -219.3001m 
    2.83600m -235.6599m 
    2.84000m -252.0196m 
    2.84400m -268.3794m 
    2.84800m -284.7392m 
    2.85200m -301.0989m 
    2.85600m -317.4587m 
    2.86000m -333.8184m 
    2.86400m -350.1782m 
    2.86800m -366.5380m 
    2.87200m -382.8977m 
    2.87600m -399.2575m 
    2.88000m -415.2675m 
    2.88400m -431.0173m 
    2.88800m -446.7670m 
    2.89200m -462.5168m 
    2.89600m -478.2666m 
    2.90000m -494.0164m 
    2.90400m -509.7662m 
    2.90800m -525.5159m 
    2.91200m -541.2657m 
    2.91600m -557.0155m 
    2.92000m -572.7653m 
    2.92400m -588.5151m 
    2.92800m -604.2649m 
    2.93200m -620.0146m 
    2.93600m -635.7644m 
    2.94000m -651.5142m 
    2.94400m -667.2640m 
    2.94800m -683.0138m 
    2.95200m -698.7635m 
    2.95600m -714.5133m 
    2.96000m -730.2631m 
    2.96400m -746.0129m 
    2.96800m -761.7627m 
    2.97200m -777.5124m 
    2.97600m -793.2622m 
    2.98000m -809.0120m 
    2.98400m -824.7618m 
    2.98800m -840.5116m 
    2.99200m -856.2614m 
    2.99600m -872.0111m 
    3.00000m -887.7609m 
    3.00400m -903.5107m 
    3.00800m -919.2605m 
    3.01200m -935.0103m 
    3.01600m -950.7600m 
    3.02000m -966.5098m 
    3.02400m -982.2596m 
    3.02800m -998.0094m 
    3.03200m   -1.0138  
    3.03600m   -1.0295  
    3.04000m   -1.0453  
    3.04400m   -1.0610  
    3.04800m   -1.0768  
    3.05200m   -1.0925  
    3.05600m   -1.1083  
    3.06000m   -1.1240  
    3.06400m   -1.1398  
    3.06800m   -1.1555  
    3.07200m   -1.1713  
    3.07600m   -1.1870  
    3.08000m   -1.2028  
    3.08400m   -1.2185  
    3.08800m   -1.2343  
    3.09200m   -1.2500  
    3.09600m   -1.2658  
    3.10000m   -1.2803  
    3.10400m   -1.2948  
    3.10800m   -1.3093  
    3.11200m   -1.3237  
    3.11600m   -1.3382  
    3.12000m   -1.3527  
    3.12400m   -1.3671  
    3.12800m   -1.3816  
    3.13200m   -1.3961  
    3.13600m   -1.4106  
    3.14000m   -1.4250  
    3.14400m   -1.4395  
    3.14800m   -1.4540  
    3.15200m   -1.4684  
    3.15600m   -1.4829  
    3.16000m   -1.4974  
    3.16400m   -1.5119  
    3.16800m   -1.5263  
    3.17200m   -1.5408  
    3.17600m   -1.5553  
    3.18000m   -1.5697  
    3.18400m   -1.5842  
    3.18800m   -1.5987  
    3.19200m   -1.6132  
    3.19600m   -1.6276  
    3.20000m   -1.6421  
    3.20400m   -1.6566  
    3.20800m   -1.6710  
    3.21200m   -1.6855  
    3.21600m   -1.7000  
    3.22000m   -1.7144  
    3.22400m   -1.7289  
    3.22800m   -1.7434  
    3.23200m   -1.7579  
    3.23600m   -1.7723  
    3.24000m   -1.7868  
    3.24400m   -1.8013  
    3.24800m   -1.8157  
    3.25200m   -1.8291  
    3.25600m   -1.8413  
    3.26000m   -1.8536  
    3.26400m   -1.8658  
    3.26800m   -1.8780  
    3.27200m   -1.8902  
    3.27600m   -1.9025  
    3.28000m   -1.9147  
    3.28400m   -1.9269  
    3.28800m   -1.9392  
    3.29200m   -1.9514  
    3.29600m   -1.9636  
    3.30000m   -1.9759  
    3.30400m   -1.9881  
    3.30800m   -2.0003  
    3.31200m   -2.0126  
    3.31600m   -2.0248  
    3.32000m   -2.0370  
    3.32400m   -2.0493  
    3.32800m   -2.0615  
    3.33200m   -2.0737  
    3.33600m   -2.0859  
    3.34000m   -2.0982  
    3.34400m   -2.1104  
    3.34800m   -2.1226  
    3.35200m   -2.1349  
    3.35600m   -2.1471  
    3.36000m   -2.1593  
    3.36400m   -2.1716  
    3.36800m   -2.1838  
    3.37200m   -2.1959  
    3.37600m   -2.2079  
    3.38000m   -2.2199  
    3.38400m   -2.2319  
    3.38800m   -2.2438  
    3.39200m   -2.2558  
    3.39600m   -2.2678  
    3.40000m   -2.2797  
    3.40400m   -2.2917  
    3.40800m   -2.3037  
    3.41200m   -2.3151  
    3.41600m   -2.3259  
    3.42000m   -2.3367  
    3.42400m   -2.3475  
    3.42800m   -2.3583  
    3.43200m   -2.3691  
    3.43600m   -2.3799  
    3.44000m   -2.3907  
    3.44400m   -2.4015  
    3.44800m   -2.4123  
    3.45200m   -2.4231  
    3.45600m   -2.4339  
    3.46000m   -2.4447  
    3.46400m   -2.4555  
    3.46800m   -2.4663  
    3.47200m   -2.4771  
    3.47600m   -2.4879  
    3.48000m   -2.4987  
    3.48400m   -2.5095  
    3.48800m   -2.5203  
    3.49200m   -2.5311  
    3.49600m   -2.5419  
    3.50000m   -2.5527  
    3.50400m   -2.5635  
    3.50800m   -2.5743  
    3.51200m   -2.5851  
    3.51600m   -2.5959  
    3.52000m   -2.6067  
    3.52400m   -2.6175  
    3.52800m   -2.6283  
    3.53200m   -2.6391  
    3.53600m   -2.6499  
    3.54000m   -2.6590  
    3.54400m   -2.6677  
    3.54800m   -2.6765  
    3.55200m   -2.6852  
    3.55600m   -2.6940  
    3.56000m   -2.7027  
    3.56400m   -2.7115  
    3.56800m   -2.7202  
    3.57200m   -2.7290  
    3.57600m   -2.7377  
    3.58000m   -2.7465  
    3.58400m   -2.7552  
    3.58800m   -2.7639  
    3.59200m   -2.7727  
    3.59600m   -2.7814  
    3.60000m   -2.7902  
    3.60400m   -2.7989  
    3.60800m   -2.8077  
    3.61200m   -2.8164  
    3.61600m   -2.8252  
    3.62000m   -2.8339  
    3.62400m   -2.8427  
    3.62800m   -2.8514  
    3.63200m   -2.8602  
    3.63600m   -2.8689  
    3.64000m   -2.8777  
    3.64400m   -2.8864  
    3.64800m   -2.8952  
    3.65200m   -2.9039  
    3.65600m   -2.9127  
    3.66000m   -2.9214  
    3.66400m   -2.9301  
    3.66800m   -2.9389  
    3.67200m   -2.9476  
    3.67600m   -2.9553  
    3.68000m   -2.9622  
    3.68400m   -2.9691  
    3.68800m   -2.9760  
    3.69200m   -2.9829  
    3.69600m   -2.9898  
    3.70000m   -2.9967  
    3.70400m   -3.0036  
    3.70800m   -3.0104  
    3.71200m   -3.0173  
    3.71600m   -3.0242  
    3.72000m   -3.0311  
    3.72400m   -3.0380  
    3.72800m   -3.0449  
    3.73200m   -3.0518  
    3.73600m   -3.0587  
    3.74000m   -3.0656  
    3.74400m   -3.0724  
    3.74800m   -3.0793  
    3.75200m   -3.0846  
    3.75600m   -3.0883  
    3.76000m   -3.0919  
    3.76400m   -3.0956  
    3.76800m   -3.0993  
    3.77200m   -3.1029  
    3.77600m   -3.1066  
    3.78000m   -3.1103  
    3.78400m   -3.1139  
    3.78800m   -3.1176  
    3.79200m   -3.1213  
    3.79600m   -3.1249  
    3.80000m   -3.1286  
    3.80400m   -3.1323  
    3.80800m   -3.1359  
    3.81200m   -3.1396  
    3.81600m   -3.1433  
    3.82000m   -3.1469  
    3.82400m   -3.1506  
    3.82800m   -3.1543  
    3.83200m   -3.1579  
    3.83600m   -3.1616  
    3.84000m   -3.1653  
    3.84400m   -3.1689  
    3.84800m   -3.1726  
    3.85200m   -3.1763  
    3.85600m   -3.1799  
    3.86000m   -3.1836  
    3.86400m   -3.1873  
    3.86800m   -3.1909  
    3.87200m   -3.1946  
    3.87600m   -3.1980  
    3.88000m   -3.2013  
    3.88400m   -3.2047  
    3.88800m   -3.2081  
    3.89200m   -3.2114  
    3.89600m   -3.2148  
    3.90000m   -3.2182  
    3.90400m   -3.2207  
    3.90800m   -3.2228  
    3.91200m   -3.2249  
    3.91600m   -3.2270  
    3.92000m   -3.2291  
    3.92400m   -3.2312  
    3.92800m   -3.2333  
    3.93200m   -3.2354  
    3.93600m   -3.2375  
    3.94000m   -3.2396  
    3.94400m   -3.2417  
    3.94800m   -3.2438  
    3.95200m   -3.2459  
    3.95600m   -3.2480  
    3.96000m   -3.2501  
    3.96400m   -3.2522  
    3.96800m   -3.2543  
    3.97200m   -3.2564  
    3.97600m   -3.2585  
    3.98000m   -3.2606  
    3.98400m   -3.2627  
    3.98800m   -3.2648  
    3.99200m   -3.2669  
    3.99600m   -3.2685  
    4.00000m   -3.2683  
    4.00400m   -3.2681  
    4.00800m   -3.2679  
    4.01200m   -3.2677  
    4.01600m   -3.2675  
    4.02000m   -3.2672  
    4.02400m   -3.2670  
    4.02800m   -3.2668  
    4.03200m   -3.2666  
    4.03600m   -3.2664  
    4.04000m   -3.2662  
    4.04400m   -3.2660  
    4.04800m   -3.2657  
    4.05200m   -3.2655  
    4.05600m   -3.2653  
    4.06000m   -3.2651  
    4.06400m   -3.2649  
    4.06800m   -3.2647  
    4.07200m   -3.2645  
    4.07600m   -3.2642  
    4.08000m   -3.2640  
    4.08400m   -3.2638  
    4.08800m   -3.2636  
    4.09200m   -3.2634  
    4.09600m   -3.2632  
    4.10000m   -3.2630  
    4.10400m   -3.2627  
    4.10800m   -3.2625  
    4.11200m   -3.2623  
    4.11600m   -3.2621  
    4.12000m   -3.2619  
    4.12400m   -3.2617  
    4.12800m   -3.2614  
    4.13200m   -3.2602  
    4.13600m   -3.2574  
    4.14000m   -3.2546  
    4.14400m   -3.2519  
    4.14800m   -3.2491  
    4.15200m   -3.2463  
    4.15600m   -3.2435  
    4.16000m   -3.2408  
    4.16400m   -3.2380  
    4.16800m   -3.2352  
    4.17200m   -3.2324  
    4.17600m   -3.2296  
    4.18000m   -3.2269  
    4.18400m   -3.2241  
    4.18800m   -3.2213  
    4.19200m   -3.2185  
    4.19600m   -3.2157  
    4.20000m   -3.2130  
    4.20400m   -3.2102  
    4.20800m   -3.2074  
    4.21200m   -3.2046  
    4.21600m   -3.2019  
    4.22000m   -3.1991  
    4.22400m   -3.1963  
    4.22800m   -3.1935  
    4.23200m   -3.1907  
    4.23600m   -3.1880  
    4.24000m   -3.1852  
    4.24400m   -3.1824  
    4.24800m   -3.1796  
    4.25200m   -3.1759  
    4.25600m   -3.1712  
    4.26000m   -3.1665  
    4.26400m   -3.1617  
    4.26800m   -3.1570  
    4.27200m   -3.1523  
    4.27600m   -3.1476  
    4.28000m   -3.1429  
    4.28400m   -3.1382  
    4.28800m   -3.1329  
    4.29200m   -3.1276  
    4.29600m   -3.1223  
    4.30000m   -3.1170  
    4.30400m   -3.1117  
    4.30800m   -3.1064  
    4.31200m   -3.1011  
    4.31600m   -3.0958  
    4.32000m   -3.0905  
    4.32400m   -3.0852  
    4.32800m   -3.0799  
    4.33200m   -3.0746  
    4.33600m   -3.0693  
    4.34000m   -3.0640  
    4.34400m   -3.0565  
    4.34800m   -3.0491  
    4.35200m   -3.0416  
    4.35600m   -3.0342  
    4.36000m   -3.0267  
    4.36400m   -3.0193  
    4.36800m   -3.0118  
    4.37200m   -3.0044  
    4.37600m   -2.9969  
    4.38000m   -2.9895  
    4.38400m   -2.9820  
    4.38800m   -2.9746  
    4.39200m   -2.9671  
    4.39600m   -2.9597  
    4.40000m   -2.9522  
    4.40400m   -2.9448  
    4.40800m   -2.9373  
    4.41200m   -2.9299  
    4.41600m   -2.9224  
    4.42000m   -2.9149  
    4.42400m   -2.9075  
    4.42800m   -2.9000  
    4.43200m   -2.8926  
    4.43600m   -2.8851  
    4.44000m   -2.8777  
    4.44400m   -2.8702  
    4.44800m   -2.8628  
    4.45200m   -2.8553  
    4.45600m   -2.8479  
    4.46000m   -2.8404  
    4.46400m   -2.8330  
    4.46800m   -2.8255  
    4.47200m   -2.8181  
    4.47600m   -2.8106  
    4.48000m   -2.8032  
    4.48400m   -2.7957  
    4.48800m   -2.7883  
    4.49200m   -2.7808  
    4.49600m   -2.7713  
    4.50000m   -2.7610  
    4.50400m   -2.7507  
    4.50800m   -2.7404  
    4.51200m   -2.7301  
    4.51600m   -2.7197  
    4.52000m   -2.7094  
    4.52400m   -2.6991  
    4.52800m   -2.6888  
    4.53200m   -2.6785  
    4.53600m   -2.6682  
    4.54000m   -2.6579  
    4.54400m   -2.6476  
    4.54800m   -2.6373  
    4.55200m   -2.6270  
    4.55600m   -2.6166  
    4.56000m   -2.6063  
    4.56400m   -2.5960  
    4.56800m   -2.5857  
    4.57200m   -2.5754  
    4.57600m   -2.5651  
    4.58000m   -2.5548  
    4.58400m   -2.5445  
    4.58800m   -2.5342  
    4.59200m   -2.5239  
    4.59600m   -2.5135  
    4.60000m   -2.5032  
    4.60400m   -2.4929  
    4.60800m   -2.4826  
    4.61200m   -2.4723  
    4.61600m   -2.4620  
    4.62000m   -2.4517  
    4.62400m   -2.4414  
    4.62800m   -2.4311  
    4.63200m   -2.4208  
    4.63600m   -2.4104  
    4.64000m   -2.4001  
    4.64400m   -2.3898  
    4.64800m   -2.3777  
    4.65200m   -2.3644  
    4.65600m   -2.3512  
    4.66000m   -2.3380  
    4.66400m   -2.3247  
    4.66800m   -2.3115  
    4.67200m   -2.2983  
    4.67600m   -2.2850  
    4.68000m   -2.2718  
    4.68400m   -2.2586  
    4.68800m   -2.2453  
    4.69200m   -2.2321  
    4.69600m   -2.2189  
    4.70000m   -2.2056  
    4.70400m   -2.1924  
    4.70800m   -2.1792  
    4.71200m   -2.1659  
    4.71600m   -2.1527  
    4.72000m   -2.1394  
    4.72400m   -2.1262  
    4.72800m   -2.1130  
    4.73200m   -2.0997  
    4.73600m   -2.0865  
    4.74000m   -2.0733  
    4.74400m   -2.0600  
    4.74800m   -2.0468  
    4.75200m   -2.0336  
    4.75600m   -2.0203  
    4.76000m   -2.0071  
    4.76400m   -1.9939  
    4.76800m   -1.9806  
    4.77200m   -1.9674  
    4.77600m   -1.9542  
    4.78000m   -1.9409  
    4.78400m   -1.9277  
    4.78800m   -1.9145  
    4.79200m   -1.9012  
    4.79600m   -1.8880  
    4.80000m   -1.8748  
    4.80400m   -1.8615  
    4.80800m   -1.8483  
    4.81200m   -1.8351  
    4.81600m   -1.8218  
    4.82000m   -1.8086  
    4.82400m   -1.7954  
    4.82800m   -1.7821  
    4.83200m   -1.7689  
    4.83600m   -1.7557  
    4.84000m   -1.7424  
    4.84400m   -1.7292  
    4.84800m   -1.7160  
    4.85200m   -1.7027  
    4.85600m   -1.6895  
    4.86000m   -1.6763  
    4.86400m   -1.6630  
    4.86800m   -1.6498  
    4.87200m   -1.6366  
    4.87600m   -1.6233  
    4.88000m   -1.6101  
    4.88400m   -1.5969  
    4.88800m   -1.5836  
    4.89200m   -1.5704  
    4.89600m   -1.5571  
    4.90000m   -1.5439  
    4.90400m   -1.5307  
    4.90800m   -1.5173  
    4.91200m   -1.5021  
    4.91600m   -1.4868  
    4.92000m   -1.4715  
    4.92400m   -1.4562  
    4.92800m   -1.4409  
    4.93200m   -1.4256  
    4.93600m   -1.4104  
    4.94000m   -1.3951  
    4.94400m   -1.3798  
    4.94800m   -1.3645  
    4.95200m   -1.3492  
    4.95600m   -1.3339  
    4.96000m   -1.3187  
    4.96400m   -1.3034  
    4.96800m   -1.2881  
    4.97200m   -1.2728  
    4.97600m   -1.2575  
    4.98000m   -1.2422  
    4.98400m   -1.2270  
    4.98800m   -1.2117  
    4.99200m   -1.1964  
    4.99600m   -1.1811  
    5.00000m   -1.1658  
    5.00400m   -1.1495  
    5.00800m   -1.1332  
    5.01200m   -1.1169  
    5.01600m   -1.1005  
    5.02000m   -1.0842  
    5.02400m   -1.0679  
    5.02800m   -1.0516  
    5.03200m   -1.0352  
    5.03600m   -1.0189  
    5.04000m   -1.0026  
    5.04400m -986.2789m 
    5.04800m -969.9559m 
    5.05200m -953.6329m 
    5.05600m -937.3100m 
    5.06000m -920.9870m 
    5.06400m -904.6641m 
    5.06800m -888.3411m 
    5.07200m -872.0181m 
    5.07600m -855.6952m 
    5.08000m -839.3722m 
    5.08400m -823.0493m 
    5.08800m -806.7263m 
    5.09200m -790.4033m 
    5.09600m -774.0804m 
    5.10000m -757.7574m 
    5.10400m -741.4344m 
    5.10800m -725.1115m 
    5.11200m -708.7885m 
    5.11600m -692.4656m 
    5.12000m -676.1426m 
    5.12400m -659.8196m 
    5.12800m -643.4967m 
    5.13200m -627.1737m 
    5.13600m -610.8508m 
    5.14000m -594.5278m 
    5.14400m -578.1617m 
    5.14800m -561.7457m 
    5.15200m -545.3298m 
    5.15600m -528.9139m 
    5.16000m -512.4979m 
    5.16400m -496.0820m 
    5.16800m -479.6660m 
    5.17200m -463.2501m 
    5.17600m -446.8342m 
    5.18000m -430.4182m 
    5.18400m -414.0023m 
    5.18800m -397.5863m 
    5.19200m -381.1704m 
    5.19600m -364.7032m 
    5.20000m -348.1596m 
    5.20400m -331.6161m 
    5.20800m -315.0725m 
    5.21200m -298.5290m 
    5.21600m -281.9854m 
    5.22000m -265.4418m 
    5.22400m -248.8983m 
    5.22800m -232.3547m 
    5.23200m -215.8111m 
    5.23600m -199.2676m 
    5.24000m -182.7240m 
    5.24400m -166.1805m 
    5.24800m -149.6369m 
    5.25200m -133.0933m 
    5.25600m -116.5498m 
    5.26000m -100.0062m 
    5.26400m  -83.4626m 
    5.26800m  -66.9191m 
    5.27200m  -50.3755m 
    5.27600m  -33.8320m 
    5.28000m  -17.2884m 
    5.28400m -744.8368u 
    5.28800m   15.7987m 
    5.29200m   32.3423m 
    5.29600m   48.8858m 
    5.30000m   65.4294m 
    5.30400m   81.9730m 
    5.30800m   98.5165m 
    5.31200m  115.0601m 
    5.31600m  131.6037m 
    5.32000m  148.1472m 
    5.32400m  164.6908m 
    5.32800m  181.2343m 
    5.33200m  197.7779m 
    5.33600m  214.3215m 
    5.34000m  230.8650m 
    5.34400m  247.4086m 
    5.34800m  263.9522m 
    5.35200m  280.4957m 
    5.35600m  297.0393m 
    5.36000m  313.5828m 
    5.36400m  329.8122m 
    5.36800m  345.8337m 
    5.37200m  361.8552m 
    5.37600m  377.8767m 
    5.38000m  393.8981m 
    5.38400m  409.9196m 
    5.38800m  425.9411m 
    5.39200m  441.9626m 
    5.39600m  457.9841m 
    5.40000m  474.0056m 
    5.40400m  490.0271m 
    5.40800m  506.0486m 
    5.41200m  522.0701m 
    5.41600m  538.0916m 
    5.42000m  554.1131m 
    5.42400m  570.1346m 
    5.42800m  586.1561m 
    5.43200m  602.1776m 
    5.43600m  618.1991m 
    5.44000m  634.2206m 
    5.44400m  650.2421m 
    5.44800m  666.2636m 
    5.45200m  682.2851m 
    5.45600m  698.3066m 
    5.46000m  714.3281m 
    5.46400m  730.3496m 
    5.46800m  746.3711m 
    5.47200m  762.3926m 
    5.47600m  778.4141m 
    5.48000m  794.4356m 
    5.48400m  810.4571m 
    5.48800m  826.4786m 
    5.49200m  842.5001m 
    5.49600m  858.5216m 
    5.50000m  874.5431m 
    5.50400m  890.5646m 
    5.50800m  906.5861m 
    5.51200m  922.6075m 
    5.51600m  938.6290m 
    5.52000m  954.6505m 
    5.52400m  970.6720m 
    5.52800m  986.6935m 
    5.53200m    1.0027  
    5.53600m    1.0187  
    5.54000m    1.0348  
    5.54400m    1.0508  
    5.54800m    1.0668  
    5.55200m    1.0828  
    5.55600m    1.0988  
    5.56000m    1.1149  
    5.56400m    1.1309  
    5.56800m    1.1469  
    5.57200m    1.1629  
    5.57600m    1.1790  
    5.58000m    1.1950  
    5.58400m    1.2110  
    5.58800m    1.2270  
    5.59200m    1.2430  
    5.59600m    1.2578  
    5.60000m    1.2725  
    5.60400m    1.2872  
    5.60800m    1.3019  
    5.61200m    1.3166  
    5.61600m    1.3313  
    5.62000m    1.3460  
    5.62400m    1.3607  
    5.62800m    1.3754  
    5.63200m    1.3901  
    5.63600m    1.4048  
    5.64000m    1.4196  
    5.64400m    1.4343  
    5.64800m    1.4490  
    5.65200m    1.4637  
    5.65600m    1.4784  
    5.66000m    1.4931  
    5.66400m    1.5078  
    5.66800m    1.5225  
    5.67200m    1.5372  
    5.67600m    1.5519  
    5.68000m    1.5667  
    5.68400m    1.5814  
    5.68800m    1.5961  
    5.69200m    1.6108  
    5.69600m    1.6255  
    5.70000m    1.6402  
    5.70400m    1.6549  
    5.70800m    1.6696  
    5.71200m    1.6843  
    5.71600m    1.6990  
    5.72000m    1.7137  
    5.72400m    1.7285  
    5.72800m    1.7432  
    5.73200m    1.7579  
    5.73600m    1.7726  
    5.74000m    1.7873  
    5.74400m    1.8020  
    5.74800m    1.8167  
    5.75200m    1.8302  
    5.75600m    1.8426  
    5.76000m    1.8550  
    5.76400m    1.8673  
    5.76800m    1.8797  
    5.77200m    1.8920  
    5.77600m    1.9044  
    5.78000m    1.9167  
    5.78400m    1.9291  
    5.78800m    1.9414  
    5.79200m    1.9538  
    5.79600m    1.9662  
    5.80000m    1.9785  
    5.80400m    1.9909  
    5.80800m    2.0032  
    5.81200m    2.0156  
    5.81600m    2.0279  
    5.82000m    2.0403  
    5.82400m    2.0526  
    5.82800m    2.0650  
    5.83200m    2.0774  
    5.83600m    2.0897  
    5.84000m    2.1021  
    5.84400m    2.1144  
    5.84800m    2.1268  
    5.85200m    2.1391  
    5.85600m    2.1515  
    5.86000m    2.1638  
    5.86400m    2.1762  
    5.86800m    2.1885  
    5.87200m    2.2007  
    5.87600m    2.2128  
    5.88000m    2.2249  
    5.88400m    2.2370  
    5.88800m    2.2490  
    5.89200m    2.2611  
    5.89600m    2.2732  
    5.90000m    2.2853  
    5.90400m    2.2974  
    5.90800m    2.3094  
    5.91200m    2.3206  
    5.91600m    2.3315  
    5.92000m    2.3423  
    5.92400m    2.3532  
    5.92800m    2.3640  
    5.93200m    2.3749  
    5.93600m    2.3858  
    5.94000m    2.3966  
    5.94400m    2.4075  
    5.94800m    2.4183  
    5.95200m    2.4292  
    5.95600m    2.4400  
    5.96000m    2.4509  
    5.96400m    2.4618  
    5.96800m    2.4726  
    5.97200m    2.4835  
    5.97600m    2.4943  
    5.98000m    2.5052  
    5.98400m    2.5160  
    5.98800m    2.5269  
    5.99200m    2.5378  
    5.99600m    2.5486  
    6.00000m    2.5595  
    6.00400m    2.5703  
    6.00800m    2.5812  
    6.01200m    2.5920  
    6.01600m    2.6029  
    6.02000m    2.6138  
    6.02400m    2.6246  
    6.02800m    2.6355  
    6.03200m    2.6463  
    6.03600m    2.6572  
    6.04000m    2.6663  
    6.04400m    2.6750  
    6.04800m    2.6837  
    6.05200m    2.6925  
    6.05600m    2.7012  
    6.06000m    2.7100  
    6.06400m    2.7187  
    6.06800m    2.7275  
    6.07200m    2.7362  
    6.07600m    2.7450  
    6.08000m    2.7537  
    6.08400m    2.7625  
    6.08800m    2.7712  
    6.09200m    2.7800  
    6.09600m    2.7887  
    6.10000m    2.7974  
    6.10400m    2.8062  
    6.10800m    2.8149  
    6.11200m    2.8237  
    6.11600m    2.8324  
    6.12000m    2.8412  
    6.12400m    2.8499  
    6.12800m    2.8587  
    6.13200m    2.8674  
    6.13600m    2.8762  
    6.14000m    2.8849  
    6.14400m    2.8937  
    6.14800m    2.9024  
    6.15200m    2.9111  
    6.15600m    2.9199  
    6.16000m    2.9286  
    6.16400m    2.9374  
    6.16800m    2.9461  
    6.17200m    2.9549  
    6.17600m    2.9624  
    6.18000m    2.9693  
    6.18400m    2.9762  
    6.18800m    2.9830  
    6.19200m    2.9899  
    6.19600m    2.9967  
    6.20000m    3.0036  
    6.20400m    3.0105  
    6.20800m    3.0173  
    6.21200m    3.0242  
    6.21600m    3.0310  
    6.22000m    3.0379  
    6.22400m    3.0447  
    6.22800m    3.0516  
    6.23200m    3.0585  
    6.23600m    3.0653  
    6.24000m    3.0722  
    6.24400m    3.0790  
    6.24800m    3.0859  
    6.25200m    3.0921  
    6.25600m    3.0976  
    6.26000m    3.1031  
    6.26400m    3.1086  
    6.26800m    3.1141  
    6.27200m    3.1196  
    6.27600m    3.1251  
    6.28000m    3.1306  
    6.28400m    3.1356  
    6.28800m    3.1405  
    6.29200m    3.1453  
    6.29600m    3.1502  
    6.30000m    3.1551  
    6.30400m    3.1600  
    6.30800m    3.1649  
    6.31200m    3.1698  
    6.31600m    3.1747  
    6.32000m    3.1795  
    6.32400m    3.1844  
    6.32800m    3.1893  
    6.33200m    3.1942  
    6.33600m    3.1991  
    6.34000m    3.2035  
    6.34400m    3.2062  
    6.34800m    3.2089  
    6.35200m    3.2116  
    6.35600m    3.2143  
    6.36000m    3.2170  
    6.36400m    3.2197  
    6.36800m    3.2224  
    6.37200m    3.2251  
    6.37600m    3.2278  
    6.38000m    3.2304  
    6.38400m    3.2331  
    6.38800m    3.2358  
    6.39200m    3.2385  
    6.39600m    3.2412  
    6.40000m    3.2439  
    6.40400m    3.2466  
    6.40800m    3.2493  
    6.41200m    3.2520  
    6.41600m    3.2547  
    6.42000m    3.2574  
    6.42400m    3.2601  
    6.42800m    3.2628  
    6.43200m    3.2655  
    6.43600m    3.2682  
    6.44000m    3.2708  
    6.44400m    3.2735  
    6.44800m    3.2762  
    6.45200m    3.2789  
    6.45600m    3.2816  
    6.46000m    3.2843  
    6.46400m    3.2870  
    6.46800m    3.2897  
    6.47200m    3.2924  
    6.47600m    3.2951  
    6.48000m    3.2978  
    6.48400m    3.3005  
    6.48800m    3.3003  
    6.49200m    3.2998  
    6.49600m    3.2993  
    6.50000m    3.2988  
    6.50400m    3.2983  
    6.50800m    3.2978  
    6.51200m    3.2973  
    6.51600m    3.2969  
    6.52000m    3.2964  
    6.52400m    3.2959  
    6.52800m    3.2954  
    6.53200m    3.2949  
    6.53600m    3.2944  
    6.54000m    3.2939  
    6.54400m    3.2935  
    6.54800m    3.2930  
    6.55200m    3.2925  
    6.55600m    3.2920  
    6.56000m    3.2915  
    6.56400m    3.2910  
    6.56800m    3.2905  
    6.57200m    3.2900  
    6.57600m    3.2896  
    6.58000m    3.2891  
    6.58400m    3.2886  
    6.58800m    3.2881  
    6.59200m    3.2876  
    6.59600m    3.2871  
    6.60000m    3.2866  
    6.60400m    3.2862  
    6.60800m    3.2857  
    6.61200m    3.2852  
    6.61600m    3.2847  
    6.62000m    3.2842  
    6.62400m    3.2837  
    6.62800m    3.2832  
    6.63200m    3.2827  
    6.63600m    3.2821  
    6.64000m    3.2789  
    6.64400m    3.2756  
    6.64800m    3.2724  
    6.65200m    3.2691  
    6.65600m    3.2659  
    6.66000m    3.2626  
    6.66400m    3.2594  
    6.66800m    3.2561  
    6.67200m    3.2529  
    6.67600m    3.2496  
    6.68000m    3.2464  
    6.68400m    3.2431  
    6.68800m    3.2399  
    6.69200m    3.2366  
    6.69600m    3.2334  
    6.70000m    3.2301  
    6.70400m    3.2269  
    6.70800m    3.2236  
    6.71200m    3.2204  
    6.71600m    3.2171  
    6.72000m    3.2138  
    6.72400m    3.2106  
    6.72800m    3.2073  
    6.73200m    3.2041  
    6.73600m    3.2008  
    6.74000m    3.1976  
    6.74400m    3.1943  
    6.74800m    3.1911  
    6.75200m    3.1868  
    6.75600m    3.1816  
    6.76000m    3.1764  
    6.76400m    3.1711  
    6.76800m    3.1659  
    6.77200m    3.1606  
    6.77600m    3.1554  
    6.78000m    3.1502  
    6.78400m    3.1449  
    6.78800m    3.1397  
    6.79200m    3.1343  
    6.79600m    3.1286  
    6.80000m    3.1228  
    6.80400m    3.1170  
    6.80800m    3.1113  
    6.81200m    3.1055  
    6.81600m    3.0997  
    6.82000m    3.0940  
    6.82400m    3.0882  
    6.82800m    3.0824  
    6.83200m    3.0767  
    6.83600m    3.0709  
    6.84000m    3.0652  
    6.84400m    3.0591  
    6.84800m    3.0514  
    6.85200m    3.0436  
    6.85600m    3.0359  
    6.86000m    3.0281  
    6.86400m    3.0204  
    6.86800m    3.0126  
    6.87200m    3.0049  
    6.87600m    2.9971  
    6.88000m    2.9894  
    6.88400m    2.9816  
    6.88800m    2.9739  
    6.89200m    2.9661  
    6.89600m    2.9584  
    6.90000m    2.9506  
    6.90400m    2.9429  
    6.90800m    2.9351  
    6.91200m    2.9274  
    6.91600m    2.9196  
    6.92000m    2.9119  
    6.92400m    2.9041  
    6.92800m    2.8964  
    6.93200m    2.8886  
    6.93600m    2.8809  
    6.94000m    2.8731  
    6.94400m    2.8654  
    6.94800m    2.8576  
    6.95200m    2.8499  
    6.95600m    2.8421  
    6.96000m    2.8344  
    6.96400m    2.8266  
    6.96800m    2.8189  
    6.97200m    2.8111  
    6.97600m    2.8034  
    6.98000m    2.7956  
    6.98400m    2.7879  
    6.98800m    2.7801  
    6.99200m    2.7724  
    6.99600m    2.7646  
    7.00000m    2.7553  
    7.00400m    2.7448  
    7.00800m    2.7344  
    7.01200m    2.7240  
    7.01600m    2.7135  
    7.02000m    2.7031  
    7.02400m    2.6927  
    7.02800m    2.6822  
    7.03200m    2.6718  
    7.03600m    2.6614  
    7.04000m    2.6510  
    7.04400m    2.6405  
    7.04800m    2.6301  
    7.05200m    2.6197  
    7.05600m    2.6092  
    7.06000m    2.5988  
    7.06400m    2.5884  
    7.06800m    2.5779  
    7.07200m    2.5675  
    7.07600m    2.5571  
    7.08000m    2.5466  
    7.08400m    2.5362  
    7.08800m    2.5258  
    7.09200m    2.5153  
    7.09600m    2.5049  
    7.10000m    2.4945  
    7.10400m    2.4840  
    7.10800m    2.4736  
    7.11200m    2.4632  
    7.11600m    2.4527  
    7.12000m    2.4423  
    7.12400m    2.4319  
    7.12800m    2.4214  
    7.13200m    2.4110  
    7.13600m    2.4006  
    7.14000m    2.3902  
    7.14400m    2.3797  
    7.14800m    2.3687  
    7.15200m    2.3555  
    7.15600m    2.3422  
    7.16000m    2.3290  
    7.16400m    2.3157  
    7.16800m    2.3024  
    7.17200m    2.2892  
    7.17600m    2.2759  
    7.18000m    2.2626  
    7.18400m    2.2494  
    7.18800m    2.2361  
    7.19200m    2.2229  
    7.19600m    2.2096  
    7.20000m    2.1963  
    7.20400m    2.1831  
    7.20800m    2.1698  
    7.21200m    2.1566  
    7.21600m    2.1433  
    7.22000m    2.1300  
    7.22400m    2.1168  
    7.22800m    2.1035  
    7.23200m    2.0902  
    7.23600m    2.0770  
    7.24000m    2.0637  
    7.24400m    2.0505  
    7.24800m    2.0372  
    7.25200m    2.0239  
    7.25600m    2.0107  
    7.26000m    1.9974  
    7.26400m    1.9842  
    7.26800m    1.9709  
    7.27200m    1.9576  
    7.27600m    1.9444  
    7.28000m    1.9311  
    7.28400m    1.9178  
    7.28800m    1.9046  
    7.29200m    1.8913  
    7.29600m    1.8781  
    7.30000m    1.8648  
    7.30400m    1.8515  
    7.30800m    1.8383  
    7.31200m    1.8250  
    7.31600m    1.8118  
    7.32000m    1.7985  
    7.32400m    1.7852  
    7.32800m    1.7720  
    7.33200m    1.7587  
    7.33600m    1.7454  
    7.34000m    1.7322  
    7.34400m    1.7189  
    7.34800m    1.7057  
    7.35200m    1.6924  
    7.35600m    1.6791  
    7.36000m    1.6659  
    7.36400m    1.6526  
    7.36800m    1.6394  
    7.37200m    1.6261  
    7.37600m    1.6128  
    7.38000m    1.5996  
    7.38400m    1.5863  
    7.38800m    1.5730  
    7.39200m    1.5598  
    7.39600m    1.5465  
    7.40000m    1.5333  
    7.40400m    1.5200  
    7.40800m    1.5067  
    7.41200m    1.4928  
    7.41600m    1.4775  
    7.42000m    1.4623  
    7.42400m    1.4470  
    7.42800m    1.4318  
    7.43200m    1.4165  
    7.43600m    1.4013  
    7.44000m    1.3860  
    7.44400m    1.3707  
    7.44800m    1.3555  
    7.45200m    1.3402  
    7.45600m    1.3250  
    7.46000m    1.3097  
    7.46400m    1.2945  
    7.46800m    1.2792  
    7.47200m    1.2639  
    7.47600m    1.2487  
    7.48000m    1.2334  
    7.48400m    1.2182  
    7.48800m    1.2029  
    7.49200m    1.1877  
    7.49600m    1.1724  
    7.50000m    1.1572  
    7.50400m    1.1409  
    7.50800m    1.1247  
    7.51200m    1.1085  
    7.51600m    1.0922  
    7.52000m    1.0760  
    7.52400m    1.0598  
    7.52800m    1.0436  
    7.53200m    1.0273  
    7.53600m    1.0111  
    7.54000m  994.8800m 
    7.54400m  978.6530m 
    7.54800m  962.4260m 
    7.55200m  946.1990m 
    7.55600m  929.9720m 
    7.56000m  913.7451m 
    7.56400m  897.5181m 
    7.56800m  881.2911m 
    7.57200m  865.0641m 
    7.57600m  848.8371m 
    7.58000m  832.6101m 
    7.58400m  816.3831m 
    7.58800m  800.1561m 
    7.59200m  783.9291m 
    7.59600m  767.7021m 
    7.60000m  751.4751m 
    7.60400m  735.2481m 
    7.60800m  719.0211m 
    7.61200m  702.7941m 
    7.61600m  686.5671m 
    7.62000m  670.3401m 
    7.62400m  654.1131m 
    7.62800m  637.8861m 
    7.63200m  621.6591m 
    7.63600m  605.4321m 
    7.64000m  589.2051m 
    7.64400m  572.9551m 
    7.64800m  556.6375m 
    7.65200m  540.3199m 
    7.65600m  524.0023m 
    7.66000m  507.6847m 
    7.66400m  491.3671m 
    7.66800m  475.0494m 
    7.67200m  458.7318m 
    7.67600m  442.4142m 
    7.68000m  426.0966m 
    7.68400m  409.7790m 
    7.68800m  393.4614m 
    7.69200m  377.1438m 
    7.69600m  360.8262m 
    7.70000m  344.4008m 
    7.70400m  327.9528m 
    7.70800m  311.5049m 
    7.71200m  295.0569m 
    7.71600m  278.6089m 
    7.72000m  262.1609m 
    7.72400m  245.7130m 
    7.72800m  229.2650m 
    7.73200m  212.8170m 
    7.73600m  196.3691m 
    7.74000m  179.9211m 
    7.74400m  163.4731m 
    7.74800m  147.0251m 
    7.75200m  130.5772m 
    7.75600m  114.1292m 
    7.76000m   97.6812m 
    7.76400m   81.2333m 
    7.76800m   64.7853m 
    7.77200m   48.3373m 
    7.77600m   31.8893m 
    7.78000m   15.4414m 
    7.78400m   -1.0066m 
    7.78800m  -17.4546m 
    7.79200m  -33.9025m 
    7.79600m  -50.3505m 
    7.80000m  -66.7985m 
    7.80400m  -83.2465m 
    7.80800m  -99.6944m 
    7.81200m -116.1424m 
    7.81600m -132.5904m 
    7.82000m -149.0383m 
    7.82400m -165.4863m 
    7.82800m -181.9343m 
    7.83200m -198.3823m 
    7.83600m -214.8302m 
    7.84000m -231.2782m 
    7.84400m -247.7262m 
    7.84800m -264.1741m 
    7.85200m -280.6221m 
    7.85600m -297.0701m 
    7.86000m -313.5181m 
    7.86400m -329.9660m 
    7.86800m -346.4140m 
    7.87200m -362.4279m 
    7.87600m -378.3708m 
    7.88000m -394.3138m 
    7.88400m -410.2568m 
    7.88800m -426.1998m 
    7.89200m -442.1428m 
    7.89600m -458.0857m 
    7.90000m -474.0287m 
    7.90400m -489.9717m 
    7.90800m -505.9147m 
    7.91200m -521.8577m 
    7.91600m -537.8006m 
    7.92000m -553.7436m 
    7.92400m -569.6866m 
    7.92800m -585.6296m 
    7.93200m -601.5725m 
    7.93600m -617.5155m 
    7.94000m -633.4585m 
    7.94400m -649.4015m 
    7.94800m -665.3445m 
    7.95200m -681.2874m 
    7.95600m -697.2304m 
    7.96000m -713.1734m 
    7.96400m -729.1164m 
    7.96800m -745.0594m 
    7.97200m -761.0023m 
    7.97600m -776.9453m 
    7.98000m -792.8883m 
    7.98400m -808.8313m 
    7.98800m -824.7743m 
    7.99200m -840.7172m 
    7.99600m -856.6602m 
    8.00000m -872.6032m 
    8.00400m -888.5462m 
    8.00800m -904.4891m 
    8.01200m -920.4321m 
    8.01600m -936.3751m 
    8.02000m -952.3181m 
    8.02400m -968.2611m 
    8.02800m -984.2040m 
    8.03200m   -1.0001  
    8.03600m   -1.0161  
    8.04000m   -1.0320  
    8.04400m   -1.0480  
    8.04800m   -1.0639  
    8.05200m   -1.0799  
    8.05600m   -1.0958  
    8.06000m   -1.1117  
    8.06400m   -1.1277  
    8.06800m   -1.1436  
    8.07200m   -1.1596  
    8.07600m   -1.1755  
    8.08000m   -1.1915  
    8.08400m   -1.2074  
    8.08800m   -1.2233  
    8.09200m   -1.2393  
    8.09600m   -1.2552  
    8.10000m   -1.2710  
    8.10400m   -1.2857  
    8.10800m   -1.3004  
    8.11200m   -1.3151  
    8.11600m   -1.3297  
    8.12000m   -1.3444  
    8.12400m   -1.3591  
    8.12800m   -1.3738  
    8.13200m   -1.3885  
    8.13600m   -1.4031  
    8.14000m   -1.4178  
    8.14400m   -1.4325  
    8.14800m   -1.4472  
    8.15200m   -1.4619  
    8.15600m   -1.4765  
    8.16000m   -1.4912  
    8.16400m   -1.5059  
    8.16800m   -1.5206  
    8.17200m   -1.5353  
    8.17600m   -1.5499  
    8.18000m   -1.5646  
    8.18400m   -1.5793  
    8.18800m   -1.5940  
    8.19200m   -1.6086  
    8.19600m   -1.6233  
    8.20000m   -1.6380  
    8.20400m   -1.6527  
    8.20800m   -1.6674  
    8.21200m   -1.6820  
    8.21600m   -1.6967  
    8.22000m   -1.7114  
    8.22400m   -1.7261  
    8.22800m   -1.7408  
    8.23200m   -1.7554  
    8.23600m   -1.7701  
    8.24000m   -1.7848  
    8.24400m   -1.7995  
    8.24800m   -1.8142  
    8.25200m   -1.8277  
    8.25600m   -1.8400  
    8.26000m   -1.8523  
    8.26400m   -1.8646  
    8.26800m   -1.8769  
    8.27200m   -1.8892  
    8.27600m   -1.9015  
    8.28000m   -1.9139  
    8.28400m   -1.9262  
    8.28800m   -1.9385  
    8.29200m   -1.9508  
    8.29600m   -1.9631  
    8.30000m   -1.9754  
    8.30400m   -1.9877  
    8.30800m   -2.0000  
    8.31200m   -2.0124  
    8.31600m   -2.0247  
    8.32000m   -2.0370  
    8.32400m   -2.0493  
    8.32800m   -2.0616  
    8.33200m   -2.0739  
    8.33600m   -2.0862  
    8.34000m   -2.0986  
    8.34400m   -2.1109  
    8.34800m   -2.1232  
    8.35200m   -2.1355  
    8.35600m   -2.1478  
    8.36000m   -2.1601  
    8.36400m   -2.1724  
    8.36800m   -2.1847  
    8.37200m   -2.1971  
    8.37600m   -2.2092  
    8.38000m   -2.2212  
    8.38400m   -2.2332  
    8.38800m   -2.2453  
    8.39200m   -2.2573  
    8.39600m   -2.2694  
    8.40000m   -2.2814  
    8.40400m   -2.2935  
    8.40800m   -2.3055  
    8.41200m   -2.3175  
    8.41600m   -2.3284  
    8.42000m   -2.3393  
    8.42400m   -2.3501  
    8.42800m   -2.3610  
    8.43200m   -2.3718  
    8.43600m   -2.3826  
    8.44000m   -2.3935  
    8.44400m   -2.4043  
    8.44800m   -2.4151  
    8.45200m   -2.4260  
    8.45600m   -2.4368  
    8.46000m   -2.4477  
    8.46400m   -2.4585  
    8.46800m   -2.4693  
    8.47200m   -2.4802  
    8.47600m   -2.4910  
    8.48000m   -2.5018  
    8.48400m   -2.5127  
    8.48800m   -2.5235  
    8.49200m   -2.5344  
    8.49600m   -2.5452  
    8.50000m   -2.5560  
    8.50400m   -2.5669  
    8.50800m   -2.5777  
    8.51200m   -2.5885  
    8.51600m   -2.5994  
    8.52000m   -2.6102  
    8.52400m   -2.6211  
    8.52800m   -2.6319  
    8.53200m   -2.6427  
    8.53600m   -2.6536  
    8.54000m   -2.6635  
    8.54400m   -2.6723  
    8.54800m   -2.6810  
    8.55200m   -2.6897  
    8.55600m   -2.6985  
    8.56000m   -2.7072  
    8.56400m   -2.7160  
    8.56800m   -2.7247  
    8.57200m   -2.7335  
    8.57600m   -2.7422  
    8.58000m   -2.7510  
    8.58400m   -2.7597  
    8.58800m   -2.7685  
    8.59200m   -2.7772  
    8.59600m   -2.7859  
    8.60000m   -2.7947  
    8.60400m   -2.8034  
    8.60800m   -2.8122  
    8.61200m   -2.8209  
    8.61600m   -2.8297  
    8.62000m   -2.8384  
    8.62400m   -2.8472  
    8.62800m   -2.8559  
    8.63200m   -2.8647  
    8.63600m   -2.8734  
    8.64000m   -2.8822  
    8.64400m   -2.8909  
    8.64800m   -2.8996  
    8.65200m   -2.9084  
    8.65600m   -2.9171  
    8.66000m   -2.9259  
    8.66400m   -2.9346  
    8.66800m   -2.9434  
    8.67200m   -2.9521  
    8.67600m   -2.9606  
    8.68000m   -2.9675  
    8.68400m   -2.9743  
    8.68800m   -2.9812  
    8.69200m   -2.9881  
    8.69600m   -2.9950  
    8.70000m   -3.0019  
    8.70400m   -3.0087  
    8.70800m   -3.0156  
    8.71200m   -3.0225  
    8.71600m   -3.0294  
    8.72000m   -3.0363  
    8.72400m   -3.0432  
    8.72800m   -3.0500  
    8.73200m   -3.0569  
    8.73600m   -3.0638  
    8.74000m   -3.0707  
    8.74400m   -3.0776  
    8.74800m   -3.0844  
    8.75200m   -3.0897  
    8.75600m   -3.0934  
    8.76000m   -3.0971  
    8.76400m   -3.1008  
    8.76800m   -3.1045  
    8.77200m   -3.1082  
    8.77600m   -3.1119  
    8.78000m   -3.1156  
    8.78400m   -3.1193  
    8.78800m   -3.1230  
    8.79200m   -3.1267  
    8.79600m   -3.1304  
    8.80000m   -3.1341  
    8.80400m   -3.1378  
    8.80800m   -3.1415  
    8.81200m   -3.1452  
    8.81600m   -3.1489  
    8.82000m   -3.1526  
    8.82400m   -3.1563  
    8.82800m   -3.1600  
    8.83200m   -3.1637  
    8.83600m   -3.1674  
    8.84000m   -3.1711  
    8.84400m   -3.1748  
    8.84800m   -3.1785  
    8.85200m   -3.1822  
    8.85600m   -3.1859  
    8.86000m   -3.1896  
    8.86400m   -3.1933  
    8.86800m   -3.1970  
    8.87200m   -3.2005  
    8.87600m   -3.2038  
    8.88000m   -3.2072  
    8.88400m   -3.2106  
    8.88800m   -3.2140  
    8.89200m   -3.2174  
    8.89600m   -3.2208  
    8.90000m   -3.2238  
    8.90400m   -3.2259  
    8.90800m   -3.2280  
    8.91200m   -3.2302  
    8.91600m   -3.2323  
    8.92000m   -3.2344  
    8.92400m   -3.2365  
    8.92800m   -3.2386  
    8.93200m   -3.2407  
    8.93600m   -3.2428  
    8.94000m   -3.2449  
    8.94400m   -3.2470  
    8.94800m   -3.2491  
    8.95200m   -3.2512  
    8.95600m   -3.2533  
    8.96000m   -3.2555  
    8.96400m   -3.2576  
    8.96800m   -3.2597  
    8.97200m   -3.2618  
    8.97600m   -3.2639  
    8.98000m   -3.2660  
    8.98400m   -3.2681  
    8.98800m   -3.2702  
    8.99200m   -3.2723  
    8.99600m   -3.2728  
    9.00000m   -3.2725  
    9.00400m   -3.2723  
    9.00800m   -3.2721  
    9.01200m   -3.2718  
    9.01600m   -3.2716  
    9.02000m   -3.2714  
    9.02400m   -3.2711  
    9.02800m   -3.2709  
    9.03200m   -3.2707  
    9.03600m   -3.2704  
    9.04000m   -3.2702  
    9.04400m   -3.2700  
    9.04800m   -3.2697  
    9.05200m   -3.2695  
    9.05600m   -3.2693  
    9.06000m   -3.2691  
    9.06400m   -3.2688  
    9.06800m   -3.2686  
    9.07200m   -3.2684  
    9.07600m   -3.2681  
    9.08000m   -3.2679  
    9.08400m   -3.2677  
    9.08800m   -3.2674  
    9.09200m   -3.2672  
    9.09600m   -3.2670  
    9.10000m   -3.2667  
    9.10400m   -3.2665  
    9.10800m   -3.2663  
    9.11200m   -3.2660  
    9.11600m   -3.2658  
    9.12000m   -3.2656  
    9.12400m   -3.2654  
    9.12800m   -3.2651  
    9.13200m   -3.2627  
    9.13600m   -3.2598  
    9.14000m   -3.2570  
    9.14400m   -3.2542  
    9.14800m   -3.2514  
    9.15200m   -3.2486  
    9.15600m   -3.2457  
    9.16000m   -3.2429  
    9.16400m   -3.2401  
    9.16800m   -3.2373  
    9.17200m   -3.2345  
    9.17600m   -3.2316  
    9.18000m   -3.2288  
    9.18400m   -3.2260  
    9.18800m   -3.2232  
    9.19200m   -3.2204  
    9.19600m   -3.2175  
    9.20000m   -3.2147  
    9.20400m   -3.2119  
    9.20800m   -3.2091  
    9.21200m   -3.2063  
    9.21600m   -3.2034  
    9.22000m   -3.2006  
    9.22400m   -3.1978  
    9.22800m   -3.1950  
    9.23200m   -3.1922  
    9.23600m   -3.1894  
    9.24000m   -3.1865  
    9.24400m   -3.1837  
    9.24800m   -3.1809  
    9.25200m   -3.1771  
    9.25600m   -3.1723  
    9.26000m   -3.1676  
    9.26400m   -3.1628  
    9.26800m   -3.1581  
    9.27200m   -3.1533  
    9.27600m   -3.1485  
    9.28000m   -3.1438  
    9.28400m   -3.1390  
    9.28800m   -3.1337  
    9.29200m   -3.1284  
    9.29600m   -3.1230  
    9.30000m   -3.1177  
    9.30400m   -3.1123  
    9.30800m   -3.1070  
    9.31200m   -3.1016  
    9.31600m   -3.0963  
    9.32000m   -3.0909  
    9.32400m   -3.0856  
    9.32800m   -3.0802  
    9.33200m   -3.0749  
    9.33600m   -3.0695  
    9.34000m   -3.0642  
    9.34400m   -3.0567  
    9.34800m   -3.0492  
    9.35200m   -3.0417  
    9.35600m   -3.0342  
    9.36000m   -3.0268  
    9.36400m   -3.0193  
    9.36800m   -3.0118  
    9.37200m   -3.0043  
    9.37600m   -2.9968  
    9.38000m   -2.9893  
    9.38400m   -2.9818  
    9.38800m   -2.9743  
    9.39200m   -2.9668  
    9.39600m   -2.9593  
    9.40000m   -2.9518  
    9.40400m   -2.9444  
    9.40800m   -2.9369  
    9.41200m   -2.9294  
    9.41600m   -2.9219  
    9.42000m   -2.9144  
    9.42400m   -2.9069  
    9.42800m   -2.8994  
    9.43200m   -2.8919  
    9.43600m   -2.8844  
    9.44000m   -2.8769  
    9.44400m   -2.8695  
    9.44800m   -2.8620  
    9.45200m   -2.8545  
    9.45600m   -2.8470  
    9.46000m   -2.8395  
    9.46400m   -2.8320  
    9.46800m   -2.8245  
    9.47200m   -2.8170  
    9.47600m   -2.8095  
    9.48000m   -2.8020  
    9.48400m   -2.7946  
    9.48800m   -2.7871  
    9.49200m   -2.7796  
    9.49600m   -2.7706  
    9.50000m   -2.7603  
    9.50400m   -2.7499  
    9.50800m   -2.7396  
    9.51200m   -2.7292  
    9.51600m   -2.7189  
    9.52000m   -2.7086  
    9.52400m   -2.6982  
    9.52800m   -2.6879  
    9.53200m   -2.6775  
    9.53600m   -2.6672  
    9.54000m   -2.6569  
    9.54400m   -2.6465  
    9.54800m   -2.6362  
    9.55200m   -2.6258  
    9.55600m   -2.6155  
    9.56000m   -2.6051  
    9.56400m   -2.5948  
    9.56800m   -2.5845  
    9.57200m   -2.5741  
    9.57600m   -2.5638  
    9.58000m   -2.5534  
    9.58400m   -2.5431  
    9.58800m   -2.5328  
    9.59200m   -2.5224  
    9.59600m   -2.5121  
    9.60000m   -2.5017  
    9.60400m   -2.4914  
    9.60800m   -2.4811  
    9.61200m   -2.4707  
    9.61600m   -2.4604  
    9.62000m   -2.4500  
    9.62400m   -2.4397  
    9.62800m   -2.4294  
    9.63200m   -2.4190  
    9.63600m   -2.4087  
    9.64000m   -2.3983  
    9.64400m   -2.3880  
    9.64800m   -2.3767  
    9.65200m   -2.3635  
    9.65600m   -2.3502  
    9.66000m   -2.3370  
    9.66400m   -2.3238  
    9.66800m   -2.3105  
    9.67200m   -2.2973  
    9.67600m   -2.2840  
    9.68000m   -2.2708  
    9.68400m   -2.2575  
    9.68800m   -2.2443  
    9.69200m   -2.2310  
    9.69600m   -2.2178  
    9.70000m   -2.2045  
    9.70400m   -2.1913  
    9.70800m   -2.1780  
    9.71200m   -2.1648  
    9.71600m   -2.1515  
    9.72000m   -2.1383  
    9.72400m   -2.1250  
    9.72800m   -2.1118  
    9.73200m   -2.0985  
    9.73600m   -2.0853  
    9.74000m   -2.0720  
    9.74400m   -2.0588  
    9.74800m   -2.0455  
    9.75200m   -2.0323  
    9.75600m   -2.0190  
    9.76000m   -2.0058  
    9.76400m   -1.9925  
    9.76800m   -1.9793  
    9.77200m   -1.9660  
    9.77600m   -1.9528  
    9.78000m   -1.9395  
    9.78400m   -1.9263  
    9.78800m   -1.9130  
    9.79200m   -1.8998  
    9.79600m   -1.8865  
    9.80000m   -1.8733  
    9.80400m   -1.8600  
    9.80800m   -1.8468  
    9.81200m   -1.8335  
    9.81600m   -1.8203  
    9.82000m   -1.8070  
    9.82400m   -1.7938  
    9.82800m   -1.7805  
    9.83200m   -1.7673  
    9.83600m   -1.7540  
    9.84000m   -1.7408  
    9.84400m   -1.7275  
    9.84800m   -1.7143  
    9.85200m   -1.7011  
    9.85600m   -1.6878  
    9.86000m   -1.6746  
    9.86400m   -1.6613  
    9.86800m   -1.6481  
    9.87200m   -1.6348  
    9.87600m   -1.6216  
    9.88000m   -1.6083  
    9.88400m   -1.5951  
    9.88800m   -1.5818  
    9.89200m   -1.5686  
    9.89600m   -1.5553  
    9.90000m   -1.5421  
    9.90400m   -1.5288  
    9.90800m   -1.5156  
    9.91200m   -1.5007  
    9.91600m   -1.4854  
    9.92000m   -1.4701  
    9.92400m   -1.4548  
    9.92800m   -1.4396  
    9.93200m   -1.4243  
    9.93600m   -1.4090  
    9.94000m   -1.3937  
    9.94400m   -1.3785  
    9.94800m   -1.3632  
    9.95200m   -1.3479  
    9.95600m   -1.3326  
    9.96000m   -1.3174  
    9.96400m   -1.3021  
    9.96800m   -1.2868  
    9.97200m   -1.2715  
    9.97600m   -1.2562  
    9.98000m   -1.2410  
    9.98400m   -1.2257  
    9.98800m   -1.2104  
    9.99200m   -1.1951  
    9.99600m   -1.1799  
   10.00000m   -1.1646  
   10.00400m   -1.1483  
   10.00800m   -1.1320  
   10.01200m   -1.1157  
   10.01600m   -1.0993  
   10.02000m   -1.0830  
   10.02400m   -1.0667  
   10.02800m   -1.0504  
   10.03200m   -1.0341  
   10.03600m   -1.0178  
   10.04000m   -1.0015  
   10.04400m -985.1851m 
   10.04800m -968.8767m 
   10.05200m -952.5682m 
   10.05600m -936.2598m 
   10.06000m -919.9513m 
   10.06400m -903.6429m 
   10.06800m -887.3344m 
   10.07200m -871.0259m 
   10.07600m -854.7175m 
   10.08000m -838.4090m 
   10.08400m -822.1006m 
   10.08800m -805.7921m 
   10.09200m -789.4837m 
   10.09600m -773.1752m 
   10.10000m -756.8667m 
   10.10400m -740.5583m 
   10.10800m -724.2498m 
   10.11200m -707.9414m 
   10.11600m -691.6329m 
   10.12000m -675.3245m 
   10.12400m -659.0160m 
   10.12800m -642.7075m 
   10.13200m -626.3991m 
   10.13600m -610.0906m 
   10.14000m -593.7822m 
   10.14400m -577.4409m 
   10.14800m -561.0396m 
   10.15200m -544.6383m 
   10.15600m -528.2369m 
   10.16000m -511.8356m 
   10.16400m -495.4343m 
   10.16800m -479.0330m 
   10.17200m -462.6316m 
   10.17600m -446.2303m 
   10.18000m -429.8290m 
   10.18400m -413.4277m 
   10.18800m -397.0263m 
   10.19200m -380.6250m 
   10.19600m -364.1891m 
   10.20000m -347.6590m 
   10.20400m -331.1290m 
   10.20800m -314.5989m 
   10.21200m -298.0688m 
   10.21600m -281.5387m 
   10.22000m -265.0086m 
   10.22400m -248.4785m 
   10.22800m -231.9484m 
   10.23200m -215.4184m 
   10.23600m -198.8883m 
   10.24000m -182.3582m 
   10.24400m -165.8281m 
   10.24800m -149.2980m 
   10.25200m -132.7679m 
   10.25600m -116.2378m 
   10.26000m  -99.7077m 
   10.26400m  -83.1777m 
   10.26800m  -66.6476m 
   10.27200m  -50.1175m 
   10.27600m  -33.5874m 
   10.28000m  -17.0573m 
   10.28400m -527.2332u 
   10.28800m   16.0029m 
   10.29200m   32.5329m 
   10.29600m   49.0630m 
   10.30000m   65.5931m 
   10.30400m   82.1232m 
   10.30800m   98.6533m 
   10.31200m  115.1834m 
   10.31600m  131.7135m 
   10.32000m  148.2435m 
   10.32400m  164.7736m 
   10.32800m  181.3037m 
   10.33200m  197.8338m 
   10.33600m  214.3639m 
   10.34000m  230.8940m 
   10.34400m  247.4241m 
   10.34800m  263.9541m 
   10.35200m  280.4842m 
   10.35600m  297.0143m 
   10.36000m  313.5444m 
   10.36400m  329.8691m 
   10.36800m  345.8821m 
   10.37200m  361.8951m 
   10.37600m  377.9080m 
   10.38000m  393.9210m 
   10.38400m  409.9339m 
   10.38800m  425.9469m 
   10.39200m  441.9598m 
   10.39600m  457.9728m 
   10.40000m  473.9858m 
   10.40400m  489.9987m 
   10.40800m  506.0117m 
   10.41200m  522.0246m 
   10.41600m  538.0376m 
   10.42000m  554.0505m 
   10.42400m  570.0635m 
   10.42800m  586.0765m 
   10.43200m  602.0894m 
   10.43600m  618.1024m 
   10.44000m  634.1153m 
   10.44400m  650.1283m 
   10.44800m  666.1413m 
   10.45200m  682.1542m 
   10.45600m  698.1672m 
   10.46000m  714.1801m 
   10.46400m  730.1931m 
   10.46800m  746.2060m 
   10.47200m  762.2190m 
   10.47600m  778.2320m 
   10.48000m  794.2449m 
   10.48400m  810.2579m 
   10.48800m  826.2708m 
   10.49200m  842.2838m 
   10.49600m  858.2967m 
   10.50000m  874.3097m 
   10.50400m  890.3227m 
   10.50800m  906.3356m 
   10.51200m  922.3486m 
   10.51600m  938.3615m 
   10.52000m  954.3745m 
   10.52400m  970.3874m 
   10.52800m  986.4004m 
   10.53200m    1.0024  
   10.53600m    1.0184  
   10.54000m    1.0344  
   10.54400m    1.0505  
   10.54800m    1.0665  
   10.55200m    1.0825  
   10.55600m    1.0985  
   10.56000m    1.1145  
   10.56400m    1.1305  
   10.56800m    1.1465  
   10.57200m    1.1625  
   10.57600m    1.1786  
   10.58000m    1.1946  
   10.58400m    1.2106  
   10.58800m    1.2266  
   10.59200m    1.2426  
   10.59600m    1.2574  
   10.60000m    1.2721  
   10.60400m    1.2869  
   10.60800m    1.3016  
   10.61200m    1.3163  
   10.61600m    1.3310  
   10.62000m    1.3457  
   10.62400m    1.3604  
   10.62800m    1.3751  
   10.63200m    1.3898  
   10.63600m    1.4045  
   10.64000m    1.4192  
   10.64400m    1.4339  
   10.64800m    1.4486  
   10.65200m    1.4633  
   10.65600m    1.4780  
   10.66000m    1.4928  
   10.66400m    1.5075  
   10.66800m    1.5222  
   10.67200m    1.5369  
   10.67600m    1.5516  
   10.68000m    1.5663  
   10.68400m    1.5810  
   10.68800m    1.5957  
   10.69200m    1.6104  
   10.69600m    1.6251  
   10.70000m    1.6398  
   10.70400m    1.6545  
   10.70800m    1.6692  
   10.71200m    1.6839  
   10.71600m    1.6987  
   10.72000m    1.7134  
   10.72400m    1.7281  
   10.72800m    1.7428  
   10.73200m    1.7575  
   10.73600m    1.7722  
   10.74000m    1.7869  
   10.74400m    1.8016  
   10.74800m    1.8163  
   10.75200m    1.8298  
   10.75600m    1.8422  
   10.76000m    1.8545  
   10.76400m    1.8669  
   10.76800m    1.8793  
   10.77200m    1.8916  
   10.77600m    1.9040  
   10.78000m    1.9163  
   10.78400m    1.9287  
   10.78800m    1.9410  
   10.79200m    1.9534  
   10.79600m    1.9657  
   10.80000m    1.9781  
   10.80400m    1.9904  
   10.80800m    2.0028  
   10.81200m    2.0151  
   10.81600m    2.0275  
   10.82000m    2.0398  
   10.82400m    2.0522  
   10.82800m    2.0645  
   10.83200m    2.0769  
   10.83600m    2.0892  
   10.84000m    2.1016  
   10.84400m    2.1140  
   10.84800m    2.1263  
   10.85200m    2.1387  
   10.85600m    2.1510  
   10.86000m    2.1634  
   10.86400m    2.1757  
   10.86800m    2.1881  
   10.87200m    2.2002  
   10.87600m    2.2123  
   10.88000m    2.2244  
   10.88400m    2.2365  
   10.88800m    2.2486  
   10.89200m    2.2606  
   10.89600m    2.2727  
   10.90000m    2.2848  
   10.90400m    2.2969  
   10.90800m    2.3090  
   10.91200m    2.3202  
   10.91600m    2.3311  
   10.92000m    2.3419  
   10.92400m    2.3528  
   10.92800m    2.3636  
   10.93200m    2.3745  
   10.93600m    2.3853  
   10.94000m    2.3962  
   10.94400m    2.4071  
   10.94800m    2.4179  
   10.95200m    2.4288  
   10.95600m    2.4396  
   10.96000m    2.4505  
   10.96400m    2.4613  
   10.96800m    2.4722  
   10.97200m    2.4830  
   10.97600m    2.4939  
   10.98000m    2.5048  
   10.98400m    2.5156  
   10.98800m    2.5265  
   10.99200m    2.5373  
   10.99600m    2.5482  
   11.00000m    2.5590  
   11.00400m    2.5699  
   11.00800m    2.5808  
   11.01200m    2.5916  
   11.01600m    2.6025  
   11.02000m    2.6133  
   11.02400m    2.6242  
   11.02800m    2.6350  
   11.03200m    2.6459  
   11.03600m    2.6567  
   11.04000m    2.6659  
   11.04400m    2.6747  
   11.04800m    2.6834  
   11.05200m    2.6922  
   11.05600m    2.7009  
   11.06000m    2.7097  
   11.06400m    2.7184  
   11.06800m    2.7272  
   11.07200m    2.7359  
   11.07600m    2.7447  
   11.08000m    2.7534  
   11.08400m    2.7621  
   11.08800m    2.7709  
   11.09200m    2.7796  
   11.09600m    2.7884  
   11.10000m    2.7971  
   11.10400m    2.8059  
   11.10800m    2.8146  
   11.11200m    2.8234  
   11.11600m    2.8321  
   11.12000m    2.8409  
   11.12400m    2.8496  
   11.12800m    2.8584  
   11.13200m    2.8671  
   11.13600m    2.8759  
   11.14000m    2.8846  
   11.14400m    2.8933  
   11.14800m    2.9021  
   11.15200m    2.9108  
   11.15600m    2.9196  
   11.16000m    2.9283  
   11.16400m    2.9371  
   11.16800m    2.9458  
   11.17200m    2.9546  
   11.17600m    2.9622  
   11.18000m    2.9691  
   11.18400m    2.9760  
   11.18800m    2.9828  
   11.19200m    2.9897  
   11.19600m    2.9965  
   11.20000m    3.0034  
   11.20400m    3.0103  
   11.20800m    3.0171  
   11.21200m    3.0240  
   11.21600m    3.0309  
   11.22000m    3.0377  
   11.22400m    3.0446  
   11.22800m    3.0514  
   11.23200m    3.0583  
   11.23600m    3.0652  
   11.24000m    3.0720  
   11.24400m    3.0789  
   11.24800m    3.0857  
   11.25200m    3.0919  
   11.25600m    3.0974  
   11.26000m    3.1030  
   11.26400m    3.1085  
   11.26800m    3.1140  
   11.27200m    3.1195  
   11.27600m    3.1250  
   11.28000m    3.1305  
   11.28400m    3.1355  
   11.28800m    3.1404  
   11.29200m    3.1452  
   11.29600m    3.1501  
   11.30000m    3.1550  
   11.30400m    3.1599  
   11.30800m    3.1648  
   11.31200m    3.1697  
   11.31600m    3.1746  
   11.32000m    3.1795  
   11.32400m    3.1844  
   11.32800m    3.1893  
   11.33200m    3.1942  
   11.33600m    3.1991  
   11.34000m    3.2035  
   11.34400m    3.2062  
   11.34800m    3.2089  
   11.35200m    3.2116  
   11.35600m    3.2143  
   11.36000m    3.2170  
   11.36400m    3.2197  
   11.36800m    3.2224  
   11.37200m    3.2250  
   11.37600m    3.2277  
   11.38000m    3.2304  
   11.38400m    3.2331  
   11.38800m    3.2358  
   11.39200m    3.2385  
   11.39600m    3.2412  
   11.40000m    3.2439  
   11.40400m    3.2466  
   11.40800m    3.2493  
   11.41200m    3.2520  
   11.41600m    3.2547  
   11.42000m    3.2574  
   11.42400m    3.2601  
   11.42800m    3.2628  
   11.43200m    3.2655  
   11.43600m    3.2682  
   11.44000m    3.2709  
   11.44400m    3.2736  
   11.44800m    3.2763  
   11.45200m    3.2790  
   11.45600m    3.2817  
   11.46000m    3.2844  
   11.46400m    3.2871  
   11.46800m    3.2898  
   11.47200m    3.2925  
   11.47600m    3.2952  
   11.48000m    3.2979  
   11.48400m    3.3006  
   11.48800m    3.3003  
   11.49200m    3.2998  
   11.49600m    3.2993  
   11.50000m    3.2988  
   11.50400m    3.2984  
   11.50800m    3.2979  
   11.51200m    3.2974  
   11.51600m    3.2969  
   11.52000m    3.2964  
   11.52400m    3.2959  
   11.52800m    3.2955  
   11.53200m    3.2950  
   11.53600m    3.2945  
   11.54000m    3.2940  
   11.54400m    3.2935  
   11.54800m    3.2930  
   11.55200m    3.2926  
   11.55600m    3.2921  
   11.56000m    3.2916  
   11.56400m    3.2911  
   11.56800m    3.2906  
   11.57200m    3.2901  
   11.57600m    3.2897  
   11.58000m    3.2892  
   11.58400m    3.2887  
   11.58800m    3.2882  
   11.59200m    3.2877  
   11.59600m    3.2872  
   11.60000m    3.2868  
   11.60400m    3.2863  
   11.60800m    3.2858  
   11.61200m    3.2853  
   11.61600m    3.2848  
   11.62000m    3.2843  
   11.62400m    3.2839  
   11.62800m    3.2834  
   11.63200m    3.2829  
   11.63600m    3.2822  
   11.64000m    3.2790  
   11.64400m    3.2757  
   11.64800m    3.2725  
   11.65200m    3.2692  
   11.65600m    3.2660  
   11.66000m    3.2627  
   11.66400m    3.2595  
   11.66800m    3.2562  
   11.67200m    3.2530  
   11.67600m    3.2497  
   11.68000m    3.2465  
   11.68400m    3.2432  
   11.68800m    3.2400  
   11.69200m    3.2367  
   11.69600m    3.2335  
   11.70000m    3.2302  
   11.70400m    3.2270  
   11.70800m    3.2237  
   11.71200m    3.2205  
   11.71600m    3.2172  
   11.72000m    3.2140  
   11.72400m    3.2107  
   11.72800m    3.2075  
   11.73200m    3.2042  
   11.73600m    3.2010  
   11.74000m    3.1977  
   11.74400m    3.1945  
   11.74800m    3.1912  
   11.75200m    3.1870  
   11.75600m    3.1817  
   11.76000m    3.1765  
   11.76400m    3.1713  
   11.76800m    3.1660  
   11.77200m    3.1608  
   11.77600m    3.1555  
   11.78000m    3.1503  
   11.78400m    3.1451  
   11.78800m    3.1398  
   11.79200m    3.1345  
   11.79600m    3.1287  
   11.80000m    3.1229  
   11.80400m    3.1172  
   11.80800m    3.1114  
   11.81200m    3.1056  
   11.81600m    3.0999  
   11.82000m    3.0941  
   11.82400m    3.0884  
   11.82800m    3.0826  
   11.83200m    3.0768  
   11.83600m    3.0711  
   11.84000m    3.0653  
   11.84400m    3.0592  
   11.84800m    3.0515  
   11.85200m    3.0437  
   11.85600m    3.0360  
   11.86000m    3.0282  
   11.86400m    3.0205  
   11.86800m    3.0127  
   11.87200m    3.0050  
   11.87600m    2.9972  
   11.88000m    2.9895  
   11.88400m    2.9817  
   11.88800m    2.9740  
   11.89200m    2.9663  
   11.89600m    2.9585  
   11.90000m    2.9508  
   11.90400m    2.9430  
   11.90800m    2.9353  
[...]
   17.19200m    2.2229  
   17.19600m    2.2097  
   17.20000m    2.1964  
   17.20400m    2.1831  
   17.20800m    2.1699  
   17.21200m    2.1566  
   17.21600m    2.1433  
   17.22000m    2.1301  
   17.22400m    2.1168  
   17.22800m    2.1036  
   17.23200m    2.0903  
   17.23600m    2.0770  
   17.24000m    2.0638  
   17.24400m    2.0505  
   17.24800m    2.0372  
   17.25200m    2.0240  
   17.25600m    2.0107  
   17.26000m    1.9975  
   17.26400m    1.9842  
   17.26800m    1.9709  
   17.27200m    1.9577  
   17.27600m    1.9444  
   17.28000m    1.9311  
   17.28400m    1.9179  
   17.28800m    1.9046  
   17.29200m    1.8913  
   17.29600m    1.8781  
   17.30000m    1.8648  
   17.30400m    1.8516  
   17.30800m    1.8383  
   17.31200m    1.8250  
   17.31600m    1.8118  
   17.32000m    1.7985  
   17.32400m    1.7852  
   17.32800m    1.7720  
   17.33200m    1.7587  
   17.33600m    1.7455  
   17.34000m    1.7322  
   17.34400m    1.7189  
   17.34800m    1.7057  
   17.35200m    1.6924  
   17.35600m    1.6791  
   17.36000m    1.6659  
   17.36400m    1.6526  
   17.36800m    1.6394  
   17.37200m    1.6261  
   17.37600m    1.6128  
   17.38000m    1.5996  
   17.38400m    1.5863  
   17.38800m    1.5730  
   17.39200m    1.5598  
   17.39600m    1.5465  
   17.40000m    1.5333  
   17.40400m    1.5200  
   17.40800m    1.5067  
   17.41200m    1.4928  
   17.41600m    1.4775  
   17.42000m    1.4623  
   17.42400m    1.4470  
   17.42800m    1.4317  
   17.43200m    1.4165  
   17.43600m    1.4012  
   17.44000m    1.3860  
   17.44400m    1.3707  
   17.44800m    1.3555  
   17.45200m    1.3402  
   17.45600m    1.3249  
   17.46000m    1.3097  
   17.46400m    1.2944  
   17.46800m    1.2792  
   17.47200m    1.2639  
   17.47600m    1.2487  
   17.48000m    1.2334  
   17.48400m    1.2181  
   17.48800m    1.2029  
   17.49200m    1.1876  
   17.49600m    1.1724  
   17.50000m    1.1571  
   17.50400m    1.1409  
   17.50800m    1.1247  
   17.51200m    1.1084  
   17.51600m    1.0922  
   17.52000m    1.0760  
   17.52400m    1.0598  
   17.52800m    1.0435  
   17.53200m    1.0273  
   17.53600m    1.0111  
   17.54000m  994.8443m 
   17.54400m  978.6171m 
   17.54800m  962.3900m 
   17.55200m  946.1629m 
   17.55600m  929.9358m 
   17.56000m  913.7086m 
   17.56400m  897.4815m 
   17.56800m  881.2544m 
   17.57200m  865.0273m 
   17.57600m  848.8001m 
   17.58000m  832.5730m 
   17.58400m  816.3459m 
   17.58800m  800.1188m 
   17.59200m  783.8916m 
   17.59600m  767.6645m 
   17.60000m  751.4374m 
   17.60400m  735.2103m 
   17.60800m  718.9831m 
   17.61200m  702.7560m 
   17.61600m  686.5289m 
   17.62000m  670.3018m 
   17.62400m  654.0746m 
   17.62800m  637.8475m 
   17.63200m  621.6204m 
   17.63600m  605.3933m 
   17.64000m  589.1661m 
   17.64400m  572.9172m 
   17.64800m  556.5995m 
   17.65200m  540.2818m 
   17.65600m  523.9642m 
   17.66000m  507.6465m 
   17.66400m  491.3288m 
   17.66800m  475.0111m 
   17.67200m  458.6935m 
   17.67600m  442.3758m 
   17.68000m  426.0581m 
   17.68400m  409.7404m 
   17.68800m  393.4228m 
   17.69200m  377.1051m 
   17.69600m  360.7874m 
   17.70000m  344.3642m 
   17.70400m  327.9164m 
   17.70800m  311.4686m 
   17.71200m  295.0208m 
   17.71600m  278.5730m 
   17.72000m  262.1252m 
   17.72400m  245.6775m 
   17.72800m  229.2297m 
   17.73200m  212.7819m 
   17.73600m  196.3341m 
   17.74000m  179.8863m 
   17.74400m  163.4385m 
   17.74800m  146.9907m 
   17.75200m  130.5429m 
   17.75600m  114.0951m 
   17.76000m   97.6473m 
   17.76400m   81.1995m 
   17.76800m   64.7518m 
   17.77200m   48.3040m 
   17.77600m   31.8562m 
   17.78000m   15.4084m 
   17.78400m   -1.0394m 
   17.78800m  -17.4872m 
   17.79200m  -33.9350m 
   17.79600m  -50.3828m 
   17.80000m  -66.8306m 
   17.80400m  -83.2784m 
   17.80800m  -99.7262m 
   17.81200m -116.1740m 
   17.81600m -132.6217m 
   17.82000m -149.0695m 
   17.82400m -165.5173m 
   17.82800m -181.9651m 
   17.83200m -198.4129m 
   17.83600m -214.8607m 
   17.84000m -231.3085m 
   17.84400m -247.7563m 
   17.84800m -264.2041m 
   17.85200m -280.6519m 
   17.85600m -297.0997m 
   17.86000m -313.5475m 
   17.86400m -329.9952m 
   17.86800m -346.4430m 
   17.87200m -362.4690m 
   17.87600m -378.4117m 
   17.88000m -394.3544m 
   17.88400m -410.2970m 
   17.88800m -426.2397m 
   17.89200m -442.1824m 
   17.89600m -458.1251m 
   17.90000m -474.0678m 
   17.90400m -490.0104m 
   17.90800m -505.9531m 
   17.91200m -521.8958m 
   17.91600m -537.8385m 
   17.92000m -553.7812m 
   17.92400m -569.7238m 
   17.92800m -585.6665m 
   17.93200m -601.6092m 
   17.93600m -617.5519m 
   17.94000m -633.4945m 
   17.94400m -649.4372m 
   17.94800m -665.3799m 
   17.95200m -681.3226m 
   17.95600m -697.2653m 
   17.96000m -713.2079m 
   17.96400m -729.1506m 
   17.96800m -745.0933m 
   17.97200m -761.0360m 
   17.97600m -776.9787m 
   17.98000m -792.9213m 
   17.98400m -808.8640m 
   17.98800m -824.8067m 
   17.99200m -840.7494m 
   17.99600m -856.6921m 
   18.00000m -872.6347m 
   18.00400m -888.5774m 
   18.00800m -904.5201m 
   18.01200m -920.4628m 
   18.01600m -936.4055m 
   18.02000m -952.3481m 
   18.02400m -968.2908m 
   18.02800m -984.2335m 
   18.03200m   -1.0002  
   18.03600m   -1.0161  
   18.04000m   -1.0321  
   18.04400m   -1.0480  
   18.04800m   -1.0639  
   18.05200m   -1.0799  
   18.05600m   -1.0958  
   18.06000m   -1.1118  
   18.06400m   -1.1277  
   18.06800m   -1.1437  
   18.07200m   -1.1596  
   18.07600m   -1.1755  
   18.08000m   -1.1915  
   18.08400m   -1.2074  
   18.08800m   -1.2234  
   18.09200m   -1.2393  
   18.09600m   -1.2553  
   18.10000m   -1.2710  
   18.10400m   -1.2857  
   18.10800m   -1.3004  
   18.11200m   -1.3151  
   18.11600m   -1.3298  
   18.12000m   -1.3444  
   18.12400m   -1.3591  
   18.12800m   -1.3738  
   18.13200m   -1.3885  
   18.13600m   -1.4032  
   18.14000m   -1.4178  
   18.14400m   -1.4325  
   18.14800m   -1.4472  
   18.15200m   -1.4619  
   18.15600m   -1.4765  
   18.16000m   -1.4912  
   18.16400m   -1.5059  
   18.16800m   -1.5206  
   18.17200m   -1.5353  
   18.17600m   -1.5499  
   18.18000m   -1.5646  
   18.18400m   -1.5793  
   18.18800m   -1.5940  
   18.19200m   -1.6087  
   18.19600m   -1.6233  
   18.20000m   -1.6380  
   18.20400m   -1.6527  
   18.20800m   -1.6674  
   18.21200m   -1.6821  
   18.21600m   -1.6967  
   18.22000m   -1.7114  
   18.22400m   -1.7261  
   18.22800m   -1.7408  
   18.23200m   -1.7555  
   18.23600m   -1.7701  
   18.24000m   -1.7848  
   18.24400m   -1.7995  
   18.24800m   -1.8142  
   18.25200m   -1.8277  
   18.25600m   -1.8400  
   18.26000m   -1.8523  
   18.26400m   -1.8646  
   18.26800m   -1.8769  
   18.27200m   -1.8892  
   18.27600m   -1.9015  
   18.28000m   -1.9139  
   18.28400m   -1.9262  
   18.28800m   -1.9385  
   18.29200m   -1.9508  
   18.29600m   -1.9631  
   18.30000m   -1.9754  
   18.30400m   -1.9877  
   18.30800m   -2.0001  
   18.31200m   -2.0124  
   18.31600m   -2.0247  
   18.32000m   -2.0370  
   18.32400m   -2.0493  
   18.32800m   -2.0616  
   18.33200m   -2.0739  
   18.33600m   -2.0862  
   18.34000m   -2.0986  
   18.34400m   -2.1109  
   18.34800m   -2.1232  
   18.35200m   -2.1355  
   18.35600m   -2.1478  
   18.36000m   -2.1601  
   18.36400m   -2.1724  
   18.36800m   -2.1848  
   18.37200m   -2.1971  
   18.37600m   -2.2092  
   18.38000m   -2.2212  
   18.38400m   -2.2332  
   18.38800m   -2.2453  
   18.39200m   -2.2573  
   18.39600m   -2.2694  
   18.40000m   -2.2814  
   18.40400m   -2.2935  
   18.40800m   -2.3055  
   18.41200m   -2.3175  
   18.41600m   -2.3284  
   18.42000m   -2.3393  
   18.42400m   -2.3501  
   18.42800m   -2.3610  
   18.43200m   -2.3718  
   18.43600m   -2.3826  
   18.44000m   -2.3935  
   18.44400m   -2.4043  
   18.44800m   -2.4151  
   18.45200m   -2.4260  
   18.45600m   -2.4368  
   18.46000m   -2.4477  
   18.46400m   -2.4585  
   18.46800m   -2.4693  
   18.47200m   -2.4802  
   18.47600m   -2.4910  
   18.48000m   -2.5018  
   18.48400m   -2.5127  
   18.48800m   -2.5235  
   18.49200m   -2.5344  
   18.49600m   -2.5452  
   18.50000m   -2.5560  
   18.50400m   -2.5669  
   18.50800m   -2.5777  
   18.51200m   -2.5885  
   18.51600m   -2.5994  
   18.52000m   -2.6102  
   18.52400m   -2.6211  
   18.52800m   -2.6319  
   18.53200m   -2.6427  
   18.53600m   -2.6536  
   18.54000m   -2.6635  
   18.54400m   -2.6723  
   18.54800m   -2.6810  
   18.55200m   -2.6897  
   18.55600m   -2.6985  
   18.56000m   -2.7072  
   18.56400m   -2.7160  
   18.56800m   -2.7247  
   18.57200m   -2.7335  
   18.57600m   -2.7422  
   18.58000m   -2.7510  
   18.58400m   -2.7597  
   18.58800m   -2.7685  
   18.59200m   -2.7772  
   18.59600m   -2.7859  
   18.60000m   -2.7947  
   18.60400m   -2.8034  
   18.60800m   -2.8122  
   18.61200m   -2.8209  
   18.61600m   -2.8297  
   18.62000m   -2.8384  
   18.62400m   -2.8472  
   18.62800m   -2.8559  
   18.63200m   -2.8647  
   18.63600m   -2.8734  
   18.64000m   -2.8821  
   18.64400m   -2.8909  
   18.64800m   -2.8996  
   18.65200m   -2.9084  
   18.65600m   -2.9171  
   18.66000m   -2.9259  
   18.66400m   -2.9346  
   18.66800m   -2.9434  
   18.67200m   -2.9521  
   18.67600m   -2.9606  
   18.68000m   -2.9675  
   18.68400m   -2.9743  
   18.68800m   -2.9812  
   18.69200m   -2.9881  
   18.69600m   -2.9950  
   18.70000m   -3.0019  
   18.70400m   -3.0087  
   18.70800m   -3.0156  
   18.71200m   -3.0225  
   18.71600m   -3.0294  
   18.72000m   -3.0363  
   18.72400m   -3.0431  
   18.72800m   -3.0500  
   18.73200m   -3.0569  
   18.73600m   -3.0638  
   18.74000m   -3.0707  
   18.74400m   -3.0776  
   18.74800m   -3.0844  
   18.75200m   -3.0897  
   18.75600m   -3.0934  
   18.76000m   -3.0971  
   18.76400m   -3.1008  
   18.76800m   -3.1045  
   18.77200m   -3.1082  
   18.77600m   -3.1119  
   18.78000m   -3.1156  
   18.78400m   -3.1193  
   18.78800m   -3.1230  
   18.79200m   -3.1267  
   18.79600m   -3.1304  
   18.80000m   -3.1341  
   18.80400m   -3.1378  
   18.80800m   -3.1415  
   18.81200m   -3.1452  
   18.81600m   -3.1489  
   18.82000m   -3.1526  
   18.82400m   -3.1563  
   18.82800m   -3.1600  
   18.83200m   -3.1637  
   18.83600m   -3.1674  
   18.84000m   -3.1711  
   18.84400m   -3.1748  
   18.84800m   -3.1785  
   18.85200m   -3.1822  
   18.85600m   -3.1859  
   18.86000m   -3.1896  
   18.86400m   -3.1933  
   18.86800m   -3.1970  
   18.87200m   -3.2005  
   18.87600m   -3.2038  
   18.88000m   -3.2072  
   18.88400m   -3.2106  
   18.88800m   -3.2140  
   18.89200m   -3.2174  
   18.89600m   -3.2208  
   18.90000m   -3.2238  
   18.90400m   -3.2259  
   18.90800m   -3.2280  
   18.91200m   -3.2301  
   18.91600m   -3.2323  
   18.92000m   -3.2344  
   18.92400m   -3.2365  
   18.92800m   -3.2386  
   18.93200m   -3.2407  
   18.93600m   -3.2428  
   18.94000m   -3.2449  
   18.94400m   -3.2470  
   18.94800m   -3.2491  
   18.95200m   -3.2512  
   18.95600m   -3.2533  
   18.96000m   -3.2554  
   18.96400m   -3.2576  
   18.96800m   -3.2597  
   18.97200m   -3.2618  
   18.97600m   -3.2639  
   18.98000m   -3.2660  
   18.98400m   -3.2681  
   18.98800m   -3.2702  
   18.99200m   -3.2723  
   18.99600m   -3.2728  
   19.00000m   -3.2725  
   19.00400m   -3.2723  
   19.00800m   -3.2721  
   19.01200m   -3.2718  
   19.01600m   -3.2716  
   19.02000m   -3.2714  
   19.02400m   -3.2711  
   19.02800m   -3.2709  
   19.03200m   -3.2707  
   19.03600m   -3.2704  
   19.04000m   -3.2702  
   19.04400m   -3.2700  
   19.04800m   -3.2697  
   19.05200m   -3.2695  
   19.05600m   -3.2693  
   19.06000m   -3.2690  
   19.06400m   -3.2688  
   19.06800m   -3.2686  
   19.07200m   -3.2684  
   19.07600m   -3.2681  
   19.08000m   -3.2679  
   19.08400m   -3.2677  
   19.08800m   -3.2674  
   19.09200m   -3.2672  
   19.09600m   -3.2670  
   19.10000m   -3.2667  
   19.10400m   -3.2665  
   19.10800m   -3.2663  
   19.11200m   -3.2660  
   19.11600m   -3.2658  
   19.12000m   -3.2656  
   19.12400m   -3.2653  
   19.12800m   -3.2651  
   19.13200m   -3.2627  
   19.13600m   -3.2598  
   19.14000m   -3.2570  
   19.14400m   -3.2542  
   19.14800m   -3.2514  
   19.15200m   -3.2486  
   19.15600m   -3.2457  
   19.16000m   -3.2429  
   19.16400m   -3.2401  
   19.16800m   -3.2373  
   19.17200m   -3.2345  
   19.17600m   -3.2316  
   19.18000m   -3.2288  
   19.18400m   -3.2260  
   19.18800m   -3.2232  
   19.19200m   -3.2204  
   19.19600m   -3.2175  
   19.20000m   -3.2147  
   19.20400m   -3.2119  
   19.20800m   -3.2091  
   19.21200m   -3.2063  
   19.21600m   -3.2034  
   19.22000m   -3.2006  
   19.22400m   -3.1978  
   19.22800m   -3.1950  
   19.23200m   -3.1922  
   19.23600m   -3.1893  
   19.24000m   -3.1865  
   19.24400m   -3.1837  
   19.24800m   -3.1809  
   19.25200m   -3.1771  
   19.25600m   -3.1723  
   19.26000m   -3.1676  
   19.26400m   -3.1628  
   19.26800m   -3.1581  
   19.27200m   -3.1533  
   19.27600m   -3.1485  
   19.28000m   -3.1438  
   19.28400m   -3.1390  
   19.28800m   -3.1337  
   19.29200m   -3.1284  
   19.29600m   -3.1230  
   19.30000m   -3.1177  
   19.30400m   -3.1123  
   19.30800m   -3.1070  
   19.31200m   -3.1016  
   19.31600m   -3.0963  
   19.32000m   -3.0909  
   19.32400m   -3.0856  
   19.32800m   -3.0802  
   19.33200m   -3.0749  
   19.33600m   -3.0695  
   19.34000m   -3.0642  
   19.34400m   -3.0567  
   19.34800m   -3.0492  
   19.35200m   -3.0417  
   19.35600m   -3.0342  
   19.36000m   -3.0268  
   19.36400m   -3.0193  
   19.36800m   -3.0118  
   19.37200m   -3.0043  
   19.37600m   -2.9968  
   19.38000m   -2.9893  
   19.38400m   -2.9818  
   19.38800m   -2.9743  
   19.39200m   -2.9668  
   19.39600m   -2.9593  
   19.40000m   -2.9518  
   19.40400m   -2.9444  
   19.40800m   -2.9369  
   19.41200m   -2.9294  
   19.41600m   -2.9219  
   19.42000m   -2.9144  
   19.42400m   -2.9069  
   19.42800m   -2.8994  
   19.43200m   -2.8919  
   19.43600m   -2.8844  
   19.44000m   -2.8769  
   19.44400m   -2.8695  
   19.44800m   -2.8620  
   19.45200m   -2.8545  
   19.45600m   -2.8470  
   19.46000m   -2.8395  
   19.46400m   -2.8320  
   19.46800m   -2.8245  
   19.47200m   -2.8170  
   19.47600m   -2.8095  
   19.48000m   -2.8020  
   19.48400m   -2.7946  
   19.48800m   -2.7871  
   19.49200m   -2.7796  
   19.49600m   -2.7706  
   19.50000m   -2.7603  
   19.50400m   -2.7499  
   19.50800m   -2.7396  
   19.51200m   -2.7292  
   19.51600m   -2.7189  
   19.52000m   -2.7086  
   19.52400m   -2.6982  
   19.52800m   -2.6879  
   19.53200m   -2.6775  
   19.53600m   -2.6672  
   19.54000m   -2.6569  
   19.54400m   -2.6465  
   19.54800m   -2.6362  
   19.55200m   -2.6258  
   19.55600m   -2.6155  
   19.56000m   -2.6051  
   19.56400m   -2.5948  
   19.56800m   -2.5845  
   19.57200m   -2.5741  
   19.57600m   -2.5638  
   19.58000m   -2.5534  
   19.58400m   -2.5431  
   19.58800m   -2.5328  
   19.59200m   -2.5224  
   19.59600m   -2.5121  
   19.60000m   -2.5017  
   19.60400m   -2.4914  
   19.60800m   -2.4811  
   19.61200m   -2.4707  
   19.61600m   -2.4604  
   19.62000m   -2.4500  
   19.62400m   -2.4397  
   19.62800m   -2.4294  
   19.63200m   -2.4190  
   19.63600m   -2.4087  
   19.64000m   -2.3983  
   19.64400m   -2.3880  
   19.64800m   -2.3767  
   19.65200m   -2.3635  
   19.65600m   -2.3503  
   19.66000m   -2.3370  
   19.66400m   -2.3238  
   19.66800m   -2.3105  
   19.67200m   -2.2973  
   19.67600m   -2.2840  
   19.68000m   -2.2708  
   19.68400m   -2.2575  
   19.68800m   -2.2443  
   19.69200m   -2.2310  
   19.69600m   -2.2178  
   19.70000m   -2.2045  
   19.70400m   -2.1913  
   19.70800m   -2.1780  
   19.71200m   -2.1648  
   19.71600m   -2.1515  
   19.72000m   -2.1383  
   19.72400m   -2.1250  
   19.72800m   -2.1118  
   19.73200m   -2.0985  
   19.73600m   -2.0853  
   19.74000m   -2.0720  
   19.74400m   -2.0588  
   19.74800m   -2.0455  
   19.75200m   -2.0323  
   19.75600m   -2.0190  
   19.76000m   -2.0058  
   19.76400m   -1.9925  
   19.76800m   -1.9793  
   19.77200m   -1.9660  
   19.77600m   -1.9528  
   19.78000m   -1.9395  
   19.78400m   -1.9263  
   19.78800m   -1.9130  
   19.79200m   -1.8998  
   19.79600m   -1.8865  
   19.80000m   -1.8733  
   19.80400m   -1.8600  
   19.80800m   -1.8468  
   19.81200m   -1.8335  
   19.81600m   -1.8203  
   19.82000m   -1.8070  
   19.82400m   -1.7938  
   19.82800m   -1.7805  
   19.83200m   -1.7673  
   19.83600m   -1.7540  
   19.84000m   -1.7408  
   19.84400m   -1.7275  
   19.84800m   -1.7143  
   19.85200m   -1.7011  
   19.85600m   -1.6878  
   19.86000m   -1.6746  
   19.86400m   -1.6613  
   19.86800m   -1.6481  
   19.87200m   -1.6348  
   19.87600m   -1.6216  
   19.88000m   -1.6083  
   19.88400m   -1.5951  
   19.88800m   -1.5818  
   19.89200m   -1.5686  
   19.89600m   -1.5553  
   19.90000m   -1.5421  
   19.90400m   -1.5288  
   19.90800m   -1.5156  
   19.91200m   -1.5007  
   19.91600m   -1.4854  
   19.92000m   -1.4701  
   19.92400m   -1.4549  
   19.92800m   -1.4396  
   19.93200m   -1.4243  
   19.93600m   -1.4090  
   19.94000m   -1.3937  
   19.94400m   -1.3785  
   19.94800m   -1.3632  
   19.95200m   -1.3479  
   19.95600m   -1.3326  
   19.96000m   -1.3174  
   19.96400m   -1.3021  
   19.96800m   -1.2868  
   19.97200m   -1.2715  
   19.97600m   -1.2562  
   19.98000m   -1.2410  
   19.98400m   -1.2257  
   19.98800m   -1.2104  
   19.99200m   -1.1951  
   19.99600m   -1.1799  
   20.00000m   -1.1646  
y

          ***** job concluded
 ******  
 * example rlc-3

 ****** job statistics summary tnom=  25.000 temp=  25.000 ******

  ******  HSPICE Threads Information  ******

  Command Line Threads Count :     1
  Available CPU Count        :     8
  Actual Threads Count       :     1


  ******  Circuit Statistics  ******
  # nodes       =       8 # elements   =      11
  # resistors   =       3 # capacitors =       4 # inductors   =       3
  # mutual_inds =       0 # vccs       =       0 # vcvs        =       0
  # cccs        =       0 # ccvs       =       0 # volt_srcs   =       1
  # curr_srcs   =       0 # diodes     =       0 # bjts        =       0
  # jfets       =       0 # mosfets    =       0 # U elements  =       0
  # T elements  =       0 # W elements =       0 # B elements  =       0
  # S elements  =       0 # P elements =       0 # va device   =       0
  # vector_srcs =       0 # N elements =       0


  ******  Runtime Statistics (seconds)  ******

  analysis           time    # points   tot. iter  conv.iter
  op point           0.01           1           4
  transient          0.01        5001         374         187 rev=        10
  readin             0.02
  errchk             0.01
  setup              0.00
  output             0.00


           peak memory used         72.39 megabytes
           total cpu time            0.12 seconds
           total elapsed time        1.59 seconds
           job started at     18:30:20 11/08/2022
           job ended   at     18:30:22 11/08/2022
           job total runtime         1.59 seconds


  lic: Release hspice token(s) 
 lic: total license checkout elapse time:        1.46(s)
