 ****** HSPICE -- P-2019.06-SP1-1 win64 (Sep 27 2019) ******                    
  Copyright (c) 1986 - 2022 by Synopsys, Inc. All Rights Reserved.              
  This software and the associated documentation are proprietary
  to Synopsys, Inc. This software may only be used in accordance
  with the terms and conditions of a written license agreement with
  Synopsys, Inc. All other use, reproduction, or distribution of
  this software is strictly prohibited.
  Input File: bus32seg16_p.sp                                                   
  Command line options: C:\synopsys\Hspice_P-2019.06-SP1-1\WIN64\hspice.com -i bus32seg16_p.sp -o F:\Benchmark\bus32seg16_p.lis
  Start time: Tue Dec  6 18:17:52 2022
  lic:  
  lic: FLEXlm: SDK_12.3 
  lic: USER:   44919                HOSTNAME: CZJ 
  lic: HOSTID: "000000000000"       PID:      30532 
  lic: Using FLEXlm license file: 
  lic: 27000@CZJ 
  lic: Checkout 1 hspice 
  lic: License/Maintenance for hspice will expire on 30-dec-2030/2030.12 
  lic: 1(in_use)/99(total) FLOATING license(s) on SERVER 27000@CZJ 
  lic:   
1****** HSPICE -- P-2019.06-SP1-1 win64 (Sep 27 2019) ******                    
 ******  
 *a bus interconnect circuit with 34 bus line 16 segment.

 ****** circuit name directory
 circuit number to circuit name directory
   number circuitname                     definition         multiplier
        0 main circuit
        1 x1.                             intercon           1.00 
  **info** (bus32seg16_p.sp:47) DC voltage reset to initial transient source value in source 0:iin1. new dc=0.0000D+00
  **warning** For .option genk=1, 0 implicit mutual inductors are generated!

             
 Summary of Linear Res Distribution Info
 -----------------------------------------------------
 |Range                        |Total     |Percent(%)|
 |-----------------------------+----------+----------|
 |1.000000e-01  ~  1.000000e+00|3         |0.5181    |
 |1.000000e+00  ~  1.000000e+03|576       |99.4819   |
 -----------------------------------------------------
              
             
 Summary of Linear Cap Distribution Info
 -----------------------------------------------------
 |Range                        |Total     |Percent(%)|
 |-----------------------------+----------+----------|
 |1.000000e-15  ~  1.000000e-14|117       |1.2227    |
 |1.000000e-14  ~  1.000000e-13|9420      |98.4429   |
 |1.000000e-13  ~  1.000000e-12|32        |0.3344    |
 -----------------------------------------------------
              
             
 Summary of Detailed RC Type Statistics
 -------------------------
 |Element Type|Number    |
 |------------+----------|
 |Constant Res|579       |
 |            |          |
 |Constant Cap|9569      |
 -------------------------
              
  
      
 *****************************************************************
 ******  option summary
 ******
 runlvl  = 3         bypass  = 2.0000    
 **info** dc convergence successful at Newton-Raphson method 
 ******  
 *a bus interconnect circuit with 34 bus line 16 segment.

 ****** operating point information tnom=  25.000 temp=  25.000 ******
 ****** operating point status is voltage   simulation time is     0.     
    node    =voltage      node    =voltage      node    =voltage

 +0:tdn10a1 =   0.      0:tdn10a9 =   0.      0:tdn11a1 =   0.     
 +0:tdn11a9 =   0.      0:tdn12a1 =   0.      0:tdn12a9 =   0.     
 +0:tdn13a1 =   0.      0:tdn13a9 =   0.      0:tdn14a1 =   0.     
 +0:tdn14a9 =   0.      0:tdn15a1 =   0.      0:tdn15a9 =   0.     
 +0:tdn16a1 =   0.      0:tdn16a9 =   0.      0:tdn17a1 =   0.     
 +0:tdn17a9 =   0.      0:tdn18a1 =   0.      0:tdn18a9 =   0.     
 +0:tdn19a1 =   0.      0:tdn19a9 =   0.      0:tdn1a1  =   0.     
 +0:tdn1a9  =   0.      0:tdn20a1 =   0.      0:tdn20a9 =   0.     
 +0:tdn21a1 =   0.      0:tdn21a9 =   0.      0:tdn22a1 =   0.     
 +0:tdn22a9 =   0.      0:tdn23a1 =   0.      0:tdn23a9 =   0.     
 +0:tdn24a1 =   0.      0:tdn24a9 =   0.      0:tdn25a1 =   0.     
 +0:tdn25a9 =   0.      0:tdn26a1 =   0.      0:tdn26a9 =   0.     
 +0:tdn27a1 =   0.      0:tdn27a9 =   0.      0:tdn28a1 =   0.     
 +0:tdn28a9 =   0.      0:tdn29a1 =   0.      0:tdn29a9 =   0.     
 +0:tdn2a1  =   0.      0:tdn2a9  =   0.      0:tdn30a1 =   0.     
 +0:tdn30a9 =   0.      0:tdn31a1 =   0.      0:tdn31a9 =   0.     
 +0:tdn32a1 =   0.      0:tdn32a9 =   0.      0:tdn3a1  =   0.     
 +0:tdn3a9  =   0.      0:tdn4a1  =   0.      0:tdn4a9  =   0.     
 +0:tdn5a1  =   0.      0:tdn5a9  =   0.      0:tdn6a1  =   0.     
 +0:tdn6a9  =   0.      0:tdn7a1  =   0.      0:tdn7a9  =   0.     
 +0:tdn8a1  =   0.      0:tdn8a9  =   0.      0:tdn9a1  =   0.     
 +0:tdn9a9  =   0.      0:tdnga1  =   0.      0:tdnga9  =   0.     
 +0:tdnva1  =   0.      0:tdnva9  =   0.      1:tdn10a10=   0.     
 +1:tdn10a11=   0.      1:tdn10a12=   0.      1:tdn10a13=   0.     
 +1:tdn10a14=   0.      1:tdn10a15=   0.      1:tdn10a16=   0.     
 +1:tdn10a17=   0.      1:tdn10a18=   0.      1:tdn10a19=   0.     
 +1:tdn10a2 =   0.      1:tdn10a20=   0.      1:tdn10a21=   0.     
 +1:tdn10a22=   0.      1:tdn10a23=   0.      1:tdn10a24=   0.     
 +1:tdn10a25=   0.      1:tdn10a26=   0.      1:tdn10a27=   0.     
 +1:tdn10a28=   0.      1:tdn10a29=   0.      1:tdn10a3 =   0.     
 +1:tdn10a30=   0.      1:tdn10a31=   0.      1:tdn10a32=   0.     
 +1:tdn10a4 =   0.      1:tdn10a5 =   0.      1:tdn10a6 =   0.     
 +1:tdn10a7 =   0.      1:tdn10a8 =   0.      1:tdn10a9 =   0.     
 +1:tdn11a10=   0.      1:tdn11a11=   0.      1:tdn11a12=   0.     
 +1:tdn11a13=   0.      1:tdn11a14=   0.      1:tdn11a15=   0.     
 +1:tdn11a16=   0.      1:tdn11a17=   0.      1:tdn11a18=   0.     
 +1:tdn11a19=   0.      1:tdn11a2 =   0.      1:tdn11a20=   0.     
 +1:tdn11a21=   0.      1:tdn11a22=   0.      1:tdn11a23=   0.     
 +1:tdn11a24=   0.      1:tdn11a25=   0.      1:tdn11a26=   0.     
 +1:tdn11a27=   0.      1:tdn11a28=   0.      1:tdn11a29=   0.     
 +1:tdn11a3 =   0.      1:tdn11a30=   0.      1:tdn11a31=   0.     
 +1:tdn11a32=   0.      1:tdn11a4 =   0.      1:tdn11a5 =   0.     
 +1:tdn11a6 =   0.      1:tdn11a7 =   0.      1:tdn11a8 =   0.     
 +1:tdn11a9 =   0.      1:tdn12a10=   0.      1:tdn12a11=   0.     
 +1:tdn12a12=   0.      1:tdn12a13=   0.      1:tdn12a14=   0.     
 +1:tdn12a15=   0.      1:tdn12a16=   0.      1:tdn12a17=   0.     
 +1:tdn12a18=   0.      1:tdn12a19=   0.      1:tdn12a2 =   0.     
 +1:tdn12a20=   0.      1:tdn12a21=   0.      1:tdn12a22=   0.     
 +1:tdn12a23=   0.      1:tdn12a24=   0.      1:tdn12a25=   0.     
 +1:tdn12a26=   0.      1:tdn12a27=   0.      1:tdn12a28=   0.     
 +1:tdn12a29=   0.      1:tdn12a3 =   0.      1:tdn12a30=   0.     
 +1:tdn12a31=   0.      1:tdn12a32=   0.      1:tdn12a4 =   0.     
 +1:tdn12a5 =   0.      1:tdn12a6 =   0.      1:tdn12a7 =   0.     
 +1:tdn12a8 =   0.      1:tdn12a9 =   0.      1:tdn13a10=   0.     
 +1:tdn13a11=   0.      1:tdn13a12=   0.      1:tdn13a13=   0.     
 +1:tdn13a14=   0.      1:tdn13a15=   0.      1:tdn13a16=   0.     
 +1:tdn13a17=   0.      1:tdn13a18=   0.      1:tdn13a19=   0.     
 +1:tdn13a2 =   0.      1:tdn13a20=   0.      1:tdn13a21=   0.     
 +1:tdn13a22=   0.      1:tdn13a23=   0.      1:tdn13a24=   0.     
 +1:tdn13a25=   0.      1:tdn13a26=   0.      1:tdn13a27=   0.     
 +1:tdn13a28=   0.      1:tdn13a29=   0.      1:tdn13a3 =   0.     
 +1:tdn13a30=   0.      1:tdn13a31=   0.      1:tdn13a32=   0.     
 +1:tdn13a4 =   0.      1:tdn13a5 =   0.      1:tdn13a6 =   0.     
 +1:tdn13a7 =   0.      1:tdn13a8 =   0.      1:tdn13a9 =   0.     
 +1:tdn14a10=   0.      1:tdn14a11=   0.      1:tdn14a12=   0.     
 +1:tdn14a13=   0.      1:tdn14a14=   0.      1:tdn14a15=   0.     
 +1:tdn14a16=   0.      1:tdn14a17=   0.      1:tdn14a18=   0.     
 +1:tdn14a19=   0.      1:tdn14a2 =   0.      1:tdn14a20=   0.     
 +1:tdn14a21=   0.      1:tdn14a22=   0.      1:tdn14a23=   0.     
 +1:tdn14a24=   0.      1:tdn14a25=   0.      1:tdn14a26=   0.     
 +1:tdn14a27=   0.      1:tdn14a28=   0.      1:tdn14a29=   0.     
 +1:tdn14a3 =   0.      1:tdn14a30=   0.      1:tdn14a31=   0.     
 +1:tdn14a32=   0.      1:tdn14a4 =   0.      1:tdn14a5 =   0.     
 +1:tdn14a6 =   0.      1:tdn14a7 =   0.      1:tdn14a8 =   0.     
 +1:tdn14a9 =   0.      1:tdn15a10=   0.      1:tdn15a11=   0.     
 +1:tdn15a12=   0.      1:tdn15a13=   0.      1:tdn15a14=   0.     
 +1:tdn15a15=   0.      1:tdn15a16=   0.      1:tdn15a17=   0.     
 +1:tdn15a18=   0.      1:tdn15a19=   0.      1:tdn15a2 =   0.     
 +1:tdn15a20=   0.      1:tdn15a21=   0.      1:tdn15a22=   0.     
 +1:tdn15a23=   0.      1:tdn15a24=   0.      1:tdn15a25=   0.     
 +1:tdn15a26=   0.      1:tdn15a27=   0.      1:tdn15a28=   0.     
 +1:tdn15a29=   0.      1:tdn15a3 =   0.      1:tdn15a30=   0.     
 +1:tdn15a31=   0.      1:tdn15a32=   0.      1:tdn15a4 =   0.     
 +1:tdn15a5 =   0.      1:tdn15a6 =   0.      1:tdn15a7 =   0.     
 +1:tdn15a8 =   0.      1:tdn15a9 =   0.      1:tdn16a10=   0.     
 +1:tdn16a11=   0.      1:tdn16a12=   0.      1:tdn16a13=   0.     
 +1:tdn16a14=   0.      1:tdn16a15=   0.      1:tdn16a16=   0.     
 +1:tdn16a17=   0.      1:tdn16a18=   0.      1:tdn16a19=   0.     
 +1:tdn16a2 =   0.      1:tdn16a20=   0.      1:tdn16a21=   0.     
 +1:tdn16a22=   0.      1:tdn16a23=   0.      1:tdn16a24=   0.     
 +1:tdn16a25=   0.      1:tdn16a26=   0.      1:tdn16a27=   0.     
 +1:tdn16a28=   0.      1:tdn16a29=   0.      1:tdn16a3 =   0.     
 +1:tdn16a30=   0.      1:tdn16a31=   0.      1:tdn16a32=   0.     
 +1:tdn16a4 =   0.      1:tdn16a5 =   0.      1:tdn16a6 =   0.     
 +1:tdn16a7 =   0.      1:tdn16a8 =   0.      1:tdn16a9 =   0.     
 +1:tdn17a10=   0.      1:tdn17a11=   0.      1:tdn17a12=   0.     
 +1:tdn17a13=   0.      1:tdn17a14=   0.      1:tdn17a15=   0.     
 +1:tdn17a16=   0.      1:tdn17a17=   0.      1:tdn17a18=   0.     
 +1:tdn17a19=   0.      1:tdn17a2 =   0.      1:tdn17a20=   0.     
 +1:tdn17a21=   0.      1:tdn17a22=   0.      1:tdn17a23=   0.     
 +1:tdn17a24=   0.      1:tdn17a25=   0.      1:tdn17a26=   0.     
 +1:tdn17a27=   0.      1:tdn17a28=   0.      1:tdn17a29=   0.     
 +1:tdn17a3 =   0.      1:tdn17a30=   0.      1:tdn17a31=   0.     
 +1:tdn17a32=   0.      1:tdn17a4 =   0.      1:tdn17a5 =   0.     
 +1:tdn17a6 =   0.      1:tdn17a7 =   0.      1:tdn17a8 =   0.     
 +1:tdn17a9 =   0.      1:tdn18a10=   0.      1:tdn18a11=   0.     
 +1:tdn18a12=   0.      1:tdn18a13=   0.      1:tdn18a14=   0.     
 +1:tdn18a15=   0.      1:tdn18a16=   0.      1:tdn18a17=   0.     
 +1:tdn18a18=   0.      1:tdn18a19=   0.      1:tdn18a2 =   0.     
 +1:tdn18a20=   0.      1:tdn18a21=   0.      1:tdn18a22=   0.     
 +1:tdn18a23=   0.      1:tdn18a24=   0.      1:tdn18a25=   0.     
 +1:tdn18a26=   0.      1:tdn18a27=   0.      1:tdn18a28=   0.     
 +1:tdn18a29=   0.      1:tdn18a3 =   0.      1:tdn18a30=   0.     
 +1:tdn18a31=   0.      1:tdn18a32=   0.      1:tdn18a4 =   0.     
 +1:tdn18a5 =   0.      1:tdn18a6 =   0.      1:tdn18a7 =   0.     
 +1:tdn18a8 =   0.      1:tdn18a9 =   0.      1:tdn19a10=   0.     
 +1:tdn19a11=   0.      1:tdn19a12=   0.      1:tdn19a13=   0.     
 +1:tdn19a14=   0.      1:tdn19a15=   0.      1:tdn19a16=   0.     
 +1:tdn19a17=   0.      1:tdn19a18=   0.      1:tdn19a19=   0.     
 +1:tdn19a2 =   0.      1:tdn19a20=   0.      1:tdn19a21=   0.     
 +1:tdn19a22=   0.      1:tdn19a23=   0.      1:tdn19a24=   0.     
 +1:tdn19a25=   0.      1:tdn19a26=   0.      1:tdn19a27=   0.     
 +1:tdn19a28=   0.      1:tdn19a29=   0.      1:tdn19a3 =   0.     
 +1:tdn19a30=   0.      1:tdn19a31=   0.      1:tdn19a32=   0.     
 +1:tdn19a4 =   0.      1:tdn19a5 =   0.      1:tdn19a6 =   0.     
 +1:tdn19a7 =   0.      1:tdn19a8 =   0.      1:tdn19a9 =   0.     
 +1:tdn1a10 =   0.      1:tdn1a11 =   0.      1:tdn1a12 =   0.     
 +1:tdn1a13 =   0.      1:tdn1a14 =   0.      1:tdn1a15 =   0.     
 +1:tdn1a16 =   0.      1:tdn1a17 =   0.      1:tdn1a18 =   0.     
 +1:tdn1a19 =   0.      1:tdn1a2  =   0.      1:tdn1a20 =   0.     
 +1:tdn1a21 =   0.      1:tdn1a22 =   0.      1:tdn1a23 =   0.     
 +1:tdn1a24 =   0.      1:tdn1a25 =   0.      1:tdn1a26 =   0.     
 +1:tdn1a27 =   0.      1:tdn1a28 =   0.      1:tdn1a29 =   0.     
 +1:tdn1a3  =   0.      1:tdn1a30 =   0.      1:tdn1a31 =   0.     
 +1:tdn1a32 =   0.      1:tdn1a4  =   0.      1:tdn1a5  =   0.     
 +1:tdn1a6  =   0.      1:tdn1a7  =   0.      1:tdn1a8  =   0.     
 +1:tdn1a9  =   0.      1:tdn20a10=   0.      1:tdn20a11=   0.     
 +1:tdn20a12=   0.      1:tdn20a13=   0.      1:tdn20a14=   0.     
 +1:tdn20a15=   0.      1:tdn20a16=   0.      1:tdn20a17=   0.     
 +1:tdn20a18=   0.      1:tdn20a19=   0.      1:tdn20a2 =   0.     
 +1:tdn20a20=   0.      1:tdn20a21=   0.      1:tdn20a22=   0.     
 +1:tdn20a23=   0.      1:tdn20a24=   0.      1:tdn20a25=   0.     
 +1:tdn20a26=   0.      1:tdn20a27=   0.      1:tdn20a28=   0.     
 +1:tdn20a29=   0.      1:tdn20a3 =   0.      1:tdn20a30=   0.     
 +1:tdn20a31=   0.      1:tdn20a32=   0.      1:tdn20a4 =   0.     
 +1:tdn20a5 =   0.      1:tdn20a6 =   0.      1:tdn20a7 =   0.     
 +1:tdn20a8 =   0.      1:tdn20a9 =   0.      1:tdn21a10=   0.     
 +1:tdn21a11=   0.      1:tdn21a12=   0.      1:tdn21a13=   0.     
 +1:tdn21a14=   0.      1:tdn21a15=   0.      1:tdn21a16=   0.     
 +1:tdn21a17=   0.      1:tdn21a18=   0.      1:tdn21a19=   0.     
 +1:tdn21a2 =   0.      1:tdn21a20=   0.      1:tdn21a21=   0.     
 +1:tdn21a22=   0.      1:tdn21a23=   0.      1:tdn21a24=   0.     
 +1:tdn21a25=   0.      1:tdn21a26=   0.      1:tdn21a27=   0.     
 +1:tdn21a28=   0.      1:tdn21a29=   0.      1:tdn21a3 =   0.     
 +1:tdn21a30=   0.      1:tdn21a31=   0.      1:tdn21a32=   0.     
 +1:tdn21a4 =   0.      1:tdn21a5 =   0.      1:tdn21a6 =   0.     
 +1:tdn21a7 =   0.      1:tdn21a8 =   0.      1:tdn21a9 =   0.     
 +1:tdn22a10=   0.      1:tdn22a11=   0.      1:tdn22a12=   0.     
 +1:tdn22a13=   0.      1:tdn22a14=   0.      1:tdn22a15=   0.     
 +1:tdn22a16=   0.      1:tdn22a17=   0.      1:tdn22a18=   0.     
 +1:tdn22a19=   0.      1:tdn22a2 =   0.      1:tdn22a20=   0.     
 +1:tdn22a21=   0.      1:tdn22a22=   0.      1:tdn22a23=   0.     
 +1:tdn22a24=   0.      1:tdn22a25=   0.      1:tdn22a26=   0.     
 +1:tdn22a27=   0.      1:tdn22a28=   0.      1:tdn22a29=   0.     
 +1:tdn22a3 =   0.      1:tdn22a30=   0.      1:tdn22a31=   0.     
 +1:tdn22a32=   0.      1:tdn22a4 =   0.      1:tdn22a5 =   0.     
 +1:tdn22a6 =   0.      1:tdn22a7 =   0.      1:tdn22a8 =   0.     
 +1:tdn22a9 =   0.      1:tdn23a10=   0.      1:tdn23a11=   0.     
 +1:tdn23a12=   0.      1:tdn23a13=   0.      1:tdn23a14=   0.     
 +1:tdn23a15=   0.      1:tdn23a16=   0.      1:tdn23a17=   0.     
 +1:tdn23a18=   0.      1:tdn23a19=   0.      1:tdn23a2 =   0.     
 +1:tdn23a20=   0.      1:tdn23a21=   0.      1:tdn23a22=   0.     
 +1:tdn23a23=   0.      1:tdn23a24=   0.      1:tdn23a25=   0.     
 +1:tdn23a26=   0.      1:tdn23a27=   0.      1:tdn23a28=   0.     
 +1:tdn23a29=   0.      1:tdn23a3 =   0.      1:tdn23a30=   0.     
 +1:tdn23a31=   0.      1:tdn23a32=   0.      1:tdn23a4 =   0.     
 +1:tdn23a5 =   0.      1:tdn23a6 =   0.      1:tdn23a7 =   0.     
 +1:tdn23a8 =   0.      1:tdn23a9 =   0.      1:tdn24a10=   0.     
 +1:tdn24a11=   0.      1:tdn24a12=   0.      1:tdn24a13=   0.     
 +1:tdn24a14=   0.      1:tdn24a15=   0.      1:tdn24a16=   0.     
 +1:tdn24a17=   0.      1:tdn24a18=   0.      1:tdn24a19=   0.     
 +1:tdn24a2 =   0.      1:tdn24a20=   0.      1:tdn24a21=   0.     
 +1:tdn24a22=   0.      1:tdn24a23=   0.      1:tdn24a24=   0.     
 +1:tdn24a25=   0.      1:tdn24a26=   0.      1:tdn24a27=   0.     
 +1:tdn24a28=   0.      1:tdn24a29=   0.      1:tdn24a3 =   0.     
 +1:tdn24a30=   0.      1:tdn24a31=   0.      1:tdn24a32=   0.     
 +1:tdn24a4 =   0.      1:tdn24a5 =   0.      1:tdn24a6 =   0.     
 +1:tdn24a7 =   0.      1:tdn24a8 =   0.      1:tdn24a9 =   0.     
 +1:tdn25a10=   0.      1:tdn25a11=   0.      1:tdn25a12=   0.     
 +1:tdn25a13=   0.      1:tdn25a14=   0.      1:tdn25a15=   0.     
 +1:tdn25a16=   0.      1:tdn25a17=   0.      1:tdn25a18=   0.     
 +1:tdn25a19=   0.      1:tdn25a2 =   0.      1:tdn25a20=   0.     
 +1:tdn25a21=   0.      1:tdn25a22=   0.      1:tdn25a23=   0.     
 +1:tdn25a24=   0.      1:tdn25a25=   0.      1:tdn25a26=   0.     
 +1:tdn25a27=   0.      1:tdn25a28=   0.      1:tdn25a29=   0.     
 +1:tdn25a3 =   0.      1:tdn25a30=   0.      1:tdn25a31=   0.     
 +1:tdn25a32=   0.      1:tdn25a4 =   0.      1:tdn25a5 =   0.     
 +1:tdn25a6 =   0.      1:tdn25a7 =   0.      1:tdn25a8 =   0.     
 +1:tdn25a9 =   0.      1:tdn26a10=   0.      1:tdn26a11=   0.     
 +1:tdn26a12=   0.      1:tdn26a13=   0.      1:tdn26a14=   0.     
 +1:tdn26a15=   0.      1:tdn26a16=   0.      1:tdn26a17=   0.     
 +1:tdn26a18=   0.      1:tdn26a19=   0.      1:tdn26a2 =   0.     
 +1:tdn26a20=   0.      1:tdn26a21=   0.      1:tdn26a22=   0.     
 +1:tdn26a23=   0.      1:tdn26a24=   0.      1:tdn26a25=   0.     
 +1:tdn26a26=   0.      1:tdn26a27=   0.      1:tdn26a28=   0.     
 +1:tdn26a29=   0.      1:tdn26a3 =   0.      1:tdn26a30=   0.     
 +1:tdn26a31=   0.      1:tdn26a32=   0.      1:tdn26a4 =   0.     
 +1:tdn26a5 =   0.      1:tdn26a6 =   0.      1:tdn26a7 =   0.     
 +1:tdn26a8 =   0.      1:tdn26a9 =   0.      1:tdn27a10=   0.     
 +1:tdn27a11=   0.      1:tdn27a12=   0.      1:tdn27a13=   0.     
 +1:tdn27a14=   0.      1:tdn27a15=   0.      1:tdn27a16=   0.     
 +1:tdn27a17=   0.      1:tdn27a18=   0.      1:tdn27a19=   0.     
 +1:tdn27a2 =   0.      1:tdn27a20=   0.      1:tdn27a21=   0.     
 +1:tdn27a22=   0.      1:tdn27a23=   0.      1:tdn27a24=   0.     
 +1:tdn27a25=   0.      1:tdn27a26=   0.      1:tdn27a27=   0.     
 +1:tdn27a28=   0.      1:tdn27a29=   0.      1:tdn27a3 =   0.     
 +1:tdn27a30=   0.      1:tdn27a31=   0.      1:tdn27a32=   0.     
 +1:tdn27a4 =   0.      1:tdn27a5 =   0.      1:tdn27a6 =   0.     
 +1:tdn27a7 =   0.      1:tdn27a8 =   0.      1:tdn27a9 =   0.     
 +1:tdn28a10=   0.      1:tdn28a11=   0.      1:tdn28a12=   0.     
 +1:tdn28a13=   0.      1:tdn28a14=   0.      1:tdn28a15=   0.     
 +1:tdn28a16=   0.      1:tdn28a17=   0.      1:tdn28a18=   0.     
 +1:tdn28a19=   0.      1:tdn28a2 =   0.      1:tdn28a20=   0.     
 +1:tdn28a21=   0.      1:tdn28a22=   0.      1:tdn28a23=   0.     
 +1:tdn28a24=   0.      1:tdn28a25=   0.      1:tdn28a26=   0.     
 +1:tdn28a27=   0.      1:tdn28a28=   0.      1:tdn28a29=   0.     
 +1:tdn28a3 =   0.      1:tdn28a30=   0.      1:tdn28a31=   0.     
 +1:tdn28a32=   0.      1:tdn28a4 =   0.      1:tdn28a5 =   0.     
 +1:tdn28a6 =   0.      1:tdn28a7 =   0.      1:tdn28a8 =   0.     
 +1:tdn28a9 =   0.      1:tdn29a10=   0.      1:tdn29a11=   0.     
 +1:tdn29a12=   0.      1:tdn29a13=   0.      1:tdn29a14=   0.     
 +1:tdn29a15=   0.      1:tdn29a16=   0.      1:tdn29a17=   0.     
 +1:tdn29a18=   0.      1:tdn29a19=   0.      1:tdn29a2 =   0.     
 +1:tdn29a20=   0.      1:tdn29a21=   0.      1:tdn29a22=   0.     
 +1:tdn29a23=   0.      1:tdn29a24=   0.      1:tdn29a25=   0.     
 +1:tdn29a26=   0.      1:tdn29a27=   0.      1:tdn29a28=   0.     
 +1:tdn29a29=   0.      1:tdn29a3 =   0.      1:tdn29a30=   0.     
 +1:tdn29a31=   0.      1:tdn29a32=   0.      1:tdn29a4 =   0.     
 +1:tdn29a5 =   0.      1:tdn29a6 =   0.      1:tdn29a7 =   0.     
 +1:tdn29a8 =   0.      1:tdn29a9 =   0.      1:tdn2a10 =   0.     
 +1:tdn2a11 =   0.      1:tdn2a12 =   0.      1:tdn2a13 =   0.     
 +1:tdn2a14 =   0.      1:tdn2a15 =   0.      1:tdn2a16 =   0.     
 +1:tdn2a17 =   0.      1:tdn2a18 =   0.      1:tdn2a19 =   0.     
 +1:tdn2a2  =   0.      1:tdn2a20 =   0.      1:tdn2a21 =   0.     
 +1:tdn2a22 =   0.      1:tdn2a23 =   0.      1:tdn2a24 =   0.     
 +1:tdn2a25 =   0.      1:tdn2a26 =   0.      1:tdn2a27 =   0.     
 +1:tdn2a28 =   0.      1:tdn2a29 =   0.      1:tdn2a3  =   0.     
 +1:tdn2a30 =   0.      1:tdn2a31 =   0.      1:tdn2a32 =   0.     
 +1:tdn2a4  =   0.      1:tdn2a5  =   0.      1:tdn2a6  =   0.     
 +1:tdn2a7  =   0.      1:tdn2a8  =   0.      1:tdn2a9  =   0.     
 +1:tdn30a10=   0.      1:tdn30a11=   0.      1:tdn30a12=   0.     
 +1:tdn30a13=   0.      1:tdn30a14=   0.      1:tdn30a15=   0.     
 +1:tdn30a16=   0.      1:tdn30a17=   0.      1:tdn30a18=   0.     
 +1:tdn30a19=   0.      1:tdn30a2 =   0.      1:tdn30a20=   0.     
 +1:tdn30a21=   0.      1:tdn30a22=   0.      1:tdn30a23=   0.     
 +1:tdn30a24=   0.      1:tdn30a25=   0.      1:tdn30a26=   0.     
 +1:tdn30a27=   0.      1:tdn30a28=   0.      1:tdn30a29=   0.     
 +1:tdn30a3 =   0.      1:tdn30a30=   0.      1:tdn30a31=   0.     
 +1:tdn30a32=   0.      1:tdn30a4 =   0.      1:tdn30a5 =   0.     
 +1:tdn30a6 =   0.      1:tdn30a7 =   0.      1:tdn30a8 =   0.     
 +1:tdn30a9 =   0.      1:tdn31a10=   0.      1:tdn31a11=   0.     
 +1:tdn31a12=   0.      1:tdn31a13=   0.      1:tdn31a14=   0.     
 +1:tdn31a15=   0.      1:tdn31a16=   0.      1:tdn31a17=   0.     
 +1:tdn31a18=   0.      1:tdn31a19=   0.      1:tdn31a2 =   0.     
 +1:tdn31a20=   0.      1:tdn31a21=   0.      1:tdn31a22=   0.     
 +1:tdn31a23=   0.      1:tdn31a24=   0.      1:tdn31a25=   0.     
 +1:tdn31a26=   0.      1:tdn31a27=   0.      1:tdn31a28=   0.     
 +1:tdn31a29=   0.      1:tdn31a3 =   0.      1:tdn31a30=   0.     
 +1:tdn31a31=   0.      1:tdn31a32=   0.      1:tdn31a4 =   0.     
 +1:tdn31a5 =   0.      1:tdn31a6 =   0.      1:tdn31a7 =   0.     
 +1:tdn31a8 =   0.      1:tdn31a9 =   0.      1:tdn32a10=   0.     
 +1:tdn32a11=   0.      1:tdn32a12=   0.      1:tdn32a13=   0.     
 +1:tdn32a14=   0.      1:tdn32a15=   0.      1:tdn32a16=   0.     
 +1:tdn32a17=   0.      1:tdn32a18=   0.      1:tdn32a19=   0.     
 +1:tdn32a2 =   0.      1:tdn32a20=   0.      1:tdn32a21=   0.     
 +1:tdn32a22=   0.      1:tdn32a23=   0.      1:tdn32a24=   0.     
 +1:tdn32a25=   0.      1:tdn32a26=   0.      1:tdn32a27=   0.     
 +1:tdn32a28=   0.      1:tdn32a29=   0.      1:tdn32a3 =   0.     
 +1:tdn32a30=   0.      1:tdn32a31=   0.      1:tdn32a32=   0.     
 +1:tdn32a4 =   0.      1:tdn32a5 =   0.      1:tdn32a6 =   0.     
 +1:tdn32a7 =   0.      1:tdn32a8 =   0.      1:tdn32a9 =   0.     
 +1:tdn3a10 =   0.      1:tdn3a11 =   0.      1:tdn3a12 =   0.     
 +1:tdn3a13 =   0.      1:tdn3a14 =   0.      1:tdn3a15 =   0.     
 +1:tdn3a16 =   0.      1:tdn3a17 =   0.      1:tdn3a18 =   0.     
 +1:tdn3a19 =   0.      1:tdn3a2  =   0.      1:tdn3a20 =   0.     
 +1:tdn3a21 =   0.      1:tdn3a22 =   0.      1:tdn3a23 =   0.     
 +1:tdn3a24 =   0.      1:tdn3a25 =   0.      1:tdn3a26 =   0.     
 +1:tdn3a27 =   0.      1:tdn3a28 =   0.      1:tdn3a29 =   0.     
 +1:tdn3a3  =   0.      1:tdn3a30 =   0.      1:tdn3a31 =   0.     
 +1:tdn3a32 =   0.      1:tdn3a4  =   0.      1:tdn3a5  =   0.     
 +1:tdn3a6  =   0.      1:tdn3a7  =   0.      1:tdn3a8  =   0.     
 +1:tdn3a9  =   0.      1:tdn4a10 =   0.      1:tdn4a11 =   0.     
 +1:tdn4a12 =   0.      1:tdn4a13 =   0.      1:tdn4a14 =   0.     
 +1:tdn4a15 =   0.      1:tdn4a16 =   0.      1:tdn4a17 =   0.     
 +1:tdn4a18 =   0.      1:tdn4a19 =   0.      1:tdn4a2  =   0.     
 +1:tdn4a20 =   0.      1:tdn4a21 =   0.      1:tdn4a22 =   0.     
 +1:tdn4a23 =   0.      1:tdn4a24 =   0.      1:tdn4a25 =   0.     
 +1:tdn4a26 =   0.      1:tdn4a27 =   0.      1:tdn4a28 =   0.     
 +1:tdn4a29 =   0.      1:tdn4a3  =   0.      1:tdn4a30 =   0.     
 +1:tdn4a31 =   0.      1:tdn4a32 =   0.      1:tdn4a4  =   0.     
 +1:tdn4a5  =   0.      1:tdn4a6  =   0.      1:tdn4a7  =   0.     
 +1:tdn4a8  =   0.      1:tdn4a9  =   0.      1:tdn5a10 =   0.     
 +1:tdn5a11 =   0.      1:tdn5a12 =   0.      1:tdn5a13 =   0.     
 +1:tdn5a14 =   0.      1:tdn5a15 =   0.      1:tdn5a16 =   0.     
 +1:tdn5a17 =   0.      1:tdn5a18 =   0.      1:tdn5a19 =   0.     
 +1:tdn5a2  =   0.      1:tdn5a20 =   0.      1:tdn5a21 =   0.     
 +1:tdn5a22 =   0.      1:tdn5a23 =   0.      1:tdn5a24 =   0.     
 +1:tdn5a25 =   0.      1:tdn5a26 =   0.      1:tdn5a27 =   0.     
 +1:tdn5a28 =   0.      1:tdn5a29 =   0.      1:tdn5a3  =   0.     
 +1:tdn5a30 =   0.      1:tdn5a31 =   0.      1:tdn5a32 =   0.     
 +1:tdn5a4  =   0.      1:tdn5a5  =   0.      1:tdn5a6  =   0.     
 +1:tdn5a7  =   0.      1:tdn5a8  =   0.      1:tdn5a9  =   0.     
 +1:tdn6a10 =   0.      1:tdn6a11 =   0.      1:tdn6a12 =   0.     
 +1:tdn6a13 =   0.      1:tdn6a14 =   0.      1:tdn6a15 =   0.     
 +1:tdn6a16 =   0.      1:tdn6a17 =   0.      1:tdn6a18 =   0.     
 +1:tdn6a19 =   0.      1:tdn6a2  =   0.      1:tdn6a20 =   0.     
 +1:tdn6a21 =   0.      1:tdn6a22 =   0.      1:tdn6a23 =   0.     
 +1:tdn6a24 =   0.      1:tdn6a25 =   0.      1:tdn6a26 =   0.     
 +1:tdn6a27 =   0.      1:tdn6a28 =   0.      1:tdn6a29 =   0.     
 +1:tdn6a3  =   0.      1:tdn6a30 =   0.      1:tdn6a31 =   0.     
 +1:tdn6a32 =   0.      1:tdn6a4  =   0.      1:tdn6a5  =   0.     
 +1:tdn6a6  =   0.      1:tdn6a7  =   0.      1:tdn6a8  =   0.     
 +1:tdn6a9  =   0.      1:tdn7a10 =   0.      1:tdn7a11 =   0.     
 +1:tdn7a12 =   0.      1:tdn7a13 =   0.      1:tdn7a14 =   0.     
 +1:tdn7a15 =   0.      1:tdn7a16 =   0.      1:tdn7a17 =   0.     
 +1:tdn7a18 =   0.      1:tdn7a19 =   0.      1:tdn7a2  =   0.     
 +1:tdn7a20 =   0.      1:tdn7a21 =   0.      1:tdn7a22 =   0.     
 +1:tdn7a23 =   0.      1:tdn7a24 =   0.      1:tdn7a25 =   0.     
 +1:tdn7a26 =   0.      1:tdn7a27 =   0.      1:tdn7a28 =   0.     
 +1:tdn7a29 =   0.      1:tdn7a3  =   0.      1:tdn7a30 =   0.     
 +1:tdn7a31 =   0.      1:tdn7a32 =   0.      1:tdn7a4  =   0.     
 +1:tdn7a5  =   0.      1:tdn7a6  =   0.      1:tdn7a7  =   0.     
 +1:tdn7a8  =   0.      1:tdn7a9  =   0.      1:tdn8a10 =   0.     
 +1:tdn8a11 =   0.      1:tdn8a12 =   0.      1:tdn8a13 =   0.     
 +1:tdn8a14 =   0.      1:tdn8a15 =   0.      1:tdn8a16 =   0.     
 +1:tdn8a17 =   0.      1:tdn8a18 =   0.      1:tdn8a19 =   0.     
 +1:tdn8a2  =   0.      1:tdn8a20 =   0.      1:tdn8a21 =   0.     
 +1:tdn8a22 =   0.      1:tdn8a23 =   0.      1:tdn8a24 =   0.     
 +1:tdn8a25 =   0.      1:tdn8a26 =   0.      1:tdn8a27 =   0.     
 +1:tdn8a28 =   0.      1:tdn8a29 =   0.      1:tdn8a3  =   0.     
 +1:tdn8a30 =   0.      1:tdn8a31 =   0.      1:tdn8a32 =   0.     
 +1:tdn8a4  =   0.      1:tdn8a5  =   0.      1:tdn8a6  =   0.     
 +1:tdn8a7  =   0.      1:tdn8a8  =   0.      1:tdn8a9  =   0.     
 +1:tdn9a10 =   0.      1:tdn9a11 =   0.      1:tdn9a12 =   0.     
 +1:tdn9a13 =   0.      1:tdn9a14 =   0.      1:tdn9a15 =   0.     
 +1:tdn9a16 =   0.      1:tdn9a17 =   0.      1:tdn9a18 =   0.     
 +1:tdn9a19 =   0.      1:tdn9a2  =   0.      1:tdn9a20 =   0.     
 +1:tdn9a21 =   0.      1:tdn9a22 =   0.      1:tdn9a23 =   0.     
 +1:tdn9a24 =   0.      1:tdn9a25 =   0.      1:tdn9a26 =   0.     
 +1:tdn9a27 =   0.      1:tdn9a28 =   0.      1:tdn9a29 =   0.     
 +1:tdn9a3  =   0.      1:tdn9a30 =   0.      1:tdn9a31 =   0.     
 +1:tdn9a32 =   0.      1:tdn9a4  =   0.      1:tdn9a5  =   0.     
 +1:tdn9a6  =   0.      1:tdn9a7  =   0.      1:tdn9a8  =   0.     
 +1:tdn9a9  =   0.      1:tdnga10 =   0.      1:tdnga11 =   0.     
 +1:tdnga12 =   0.      1:tdnga13 =   0.      1:tdnga14 =   0.     
 +1:tdnga15 =   0.      1:tdnga16 =   0.      1:tdnga17 =   0.     
 +1:tdnga18 =   0.      1:tdnga19 =   0.      1:tdnga2  =   0.     
 +1:tdnga20 =   0.      1:tdnga21 =   0.      1:tdnga22 =   0.     
 +1:tdnga23 =   0.      1:tdnga24 =   0.      1:tdnga25 =   0.     
 +1:tdnga26 =   0.      1:tdnga27 =   0.      1:tdnga28 =   0.     
 +1:tdnga29 =   0.      1:tdnga3  =   0.      1:tdnga30 =   0.     
 +1:tdnga31 =   0.      1:tdnga32 =   0.      1:tdnga4  =   0.     
 +1:tdnga5  =   0.      1:tdnga6  =   0.      1:tdnga7  =   0.     
 +1:tdnga8  =   0.      1:tdnga9  =   0.      1:tdnva10 =   0.     
 +1:tdnva11 =   0.      1:tdnva12 =   0.      1:tdnva13 =   0.     
 +1:tdnva14 =   0.      1:tdnva15 =   0.      1:tdnva16 =   0.     
 +1:tdnva17 =   0.      1:tdnva18 =   0.      1:tdnva19 =   0.     
 +1:tdnva2  =   0.      1:tdnva20 =   0.      1:tdnva21 =   0.     
 +1:tdnva22 =   0.      1:tdnva23 =   0.      1:tdnva24 =   0.     
 +1:tdnva25 =   0.      1:tdnva26 =   0.      1:tdnva27 =   0.     
 +1:tdnva28 =   0.      1:tdnva29 =   0.      1:tdnva3  =   0.     
 +1:tdnva30 =   0.      1:tdnva31 =   0.      1:tdnva32 =   0.     
 +1:tdnva4  =   0.      1:tdnva5  =   0.      1:tdnva6  =   0.     
 +1:tdnva7  =   0.      1:tdnva8  =   0.      1:tdnva9  =   0.     

 ******
 *a bus interconnect circuit with 34 bus line 16 segment.

 ****** transient analysis tnom=  25.000 temp=  25.000 ******
x

 time         voltage    voltage    voltage    voltage   
             tdn1a9     tdn2a9     tdn3a9     tdn4a9     
    0.          0.         0.         0.         0.      
   10.00000p    0.         0.         0.         0.      
   20.00000p    0.         0.         0.         0.      
   30.00000p    0.         0.         0.         0.      
   40.00000p    0.         0.         0.         0.      
   50.00000p    0.         0.         0.         0.      
   60.00000p    0.         0.         0.         0.      
   70.00000p    0.         0.         0.         0.      
   80.00000p    0.         0.         0.         0.      
   90.00000p    0.         0.         0.         0.      
  100.00000p    0.         0.         0.         0.      
  110.00000p    0.         0.         0.         0.      
  120.00000p    0.         0.         0.         0.      
  130.00000p    0.         0.         0.         0.      
  140.00000p    0.         0.         0.         0.      
  150.00000p    0.         0.         0.         0.      
  160.00000p    0.         0.         0.         0.      
  170.00000p    0.         0.         0.         0.      
  180.00000p    0.         0.         0.         0.      
  190.00000p    0.         0.         0.         0.      
  200.00000p    0.         0.         0.         0.      
  210.00000p    0.         0.         0.         0.      
  220.00000p    0.         0.         0.         0.      
  230.00000p    0.         0.         0.         0.      
  240.00000p    0.         0.         0.         0.      
  250.00000p    0.         0.         0.         0.      
  260.00000p    0.         0.         0.         0.      
  270.00000p    0.         0.         0.         0.      
  280.00000p    0.         0.         0.         0.      
  290.00000p    0.         0.         0.         0.      
  300.00000p    0.         0.         0.         0.      
  310.00000p    0.         0.         0.         0.      
  320.00000p    0.         0.         0.         0.      
  330.00000p    0.         0.         0.         0.      
  340.00000p    0.         0.         0.         0.      
  350.00000p    0.         0.         0.         0.      
  360.00000p    0.         0.         0.         0.      
  370.00000p    0.         0.         0.         0.      
  380.00000p    0.         0.         0.         0.      
  390.00000p    0.         0.         0.         0.      
  400.00000p    0.         0.         0.         0.      
  410.00000p    0.         0.         0.         0.      
  420.00000p    0.         0.         0.         0.      
  430.00000p    0.         0.         0.         0.      
  440.00000p    0.         0.         0.         0.      
  450.00000p    0.         0.         0.         0.      
  460.00000p    0.         0.         0.         0.      
  470.00000p    0.         0.         0.         0.      
  480.00000p    0.         0.         0.         0.      
  490.00000p    0.         0.         0.         0.      
  500.00000p    0.         0.         0.         0.      
  510.00000p    0.         0.         0.         0.      
  520.00000p    0.         0.         0.         0.      
  530.00000p    0.         0.         0.         0.      
  540.00000p    0.         0.         0.         0.      
  550.00000p    0.         0.         0.         0.      
  560.00000p    0.         0.         0.         0.      
  570.00000p    0.         0.         0.         0.      
  580.00000p    0.         0.         0.         0.      
  590.00000p    0.         0.         0.         0.      
  600.00000p    0.         0.         0.         0.      
  610.00000p    0.         0.         0.         0.      
  620.00000p    0.         0.         0.         0.      
  630.00000p    0.         0.         0.         0.      
  640.00000p    0.         0.         0.         0.      
  650.00000p    0.         0.         0.         0.      
  660.00000p    0.         0.         0.         0.      
  670.00000p    0.         0.         0.         0.      
  680.00000p    0.         0.         0.         0.      
  690.00000p    0.         0.         0.         0.      
  700.00000p    0.         0.         0.         0.      
  710.00000p    0.         0.         0.         0.      
  720.00000p    0.         0.         0.         0.      
  730.00000p    0.         0.         0.         0.      
  740.00000p    0.         0.         0.         0.      
  750.00000p    0.         0.         0.         0.      
  760.00000p    0.         0.         0.         0.      
  770.00000p    0.         0.         0.         0.      
  780.00000p    0.         0.         0.         0.      
  790.00000p    0.         0.         0.         0.      
  800.00000p    0.         0.         0.         0.      
  810.00000p    0.         0.         0.         0.      
  820.00000p    0.         0.         0.         0.      
  830.00000p    0.         0.         0.         0.      
  840.00000p    0.         0.         0.         0.      
  850.00000p    0.         0.         0.         0.      
  860.00000p    0.         0.         0.         0.      
  870.00000p    0.         0.         0.         0.      
  880.00000p    0.         0.         0.         0.      
  890.00000p    0.         0.         0.         0.      
  900.00000p    0.         0.         0.         0.      
  910.00000p    0.         0.         0.         0.      
  920.00000p    0.         0.         0.         0.      
  930.00000p    0.         0.         0.         0.      
  940.00000p    0.         0.         0.         0.      
  950.00000p    0.         0.         0.         0.      
  960.00000p    0.         0.         0.         0.      
  970.00000p    0.         0.         0.         0.      
  980.00000p    0.         0.         0.         0.      
  990.00000p    0.         0.         0.         0.      
 1000.00000p    0.         0.         0.         0.      
    1.01000n -162.0408m -151.0959m -146.3191m -144.4967m 
    1.02000n -324.0815m -302.1919m -292.6381m -288.9934m 
    1.03000n -486.1223m -453.2878m -438.9572m -433.4901m 
    1.04000n -648.1630m -604.3838m -585.2763m -577.9868m 
    1.05000n -810.2038m -755.4797m -731.5954m -722.4835m 
    1.06000n -972.2445m -906.5756m -877.9144m -866.9803m 
    1.07000n   -1.1343    -1.0577    -1.0242    -1.0115  
    1.08000n   -1.3087    -1.2163    -1.1756    -1.1599  
    1.09000n   -1.4956    -1.3824    -1.3319    -1.3124  
    1.10000n   -1.6824    -1.5486    -1.4882    -1.4648  
    1.11000n   -1.8692    -1.7147    -1.6445    -1.6173  
    1.12000n   -2.0560    -1.8809    -1.8008    -1.7697  
    1.13000n   -2.2429    -2.0470    -1.9571    -1.9222  
    1.14000n   -2.4297    -2.2132    -2.1135    -2.0746  
    1.15000n   -2.6165    -2.3793    -2.2698    -2.2271  
    1.16000n   -2.8034    -2.5455    -2.4261    -2.3795  
    1.17000n   -3.0902    -2.8077    -2.6709    -2.6177  
    1.18000n   -3.3846    -3.0774    -2.9225    -2.8623  
    1.19000n   -3.6791    -3.3470    -3.1741    -3.1070  
    1.20000n   -3.9735    -3.6166    -3.4257    -3.3517  
    1.21000n   -4.2680    -3.8862    -3.6773    -3.5963  
    1.22000n   -4.5624    -4.1558    -3.9289    -3.8410  
    1.23000n   -4.8569    -4.4254    -4.1805    -4.0857  
    1.24000n   -5.1513    -4.6950    -4.4321    -4.3303  
    1.25000n   -5.4458    -4.9646    -4.6837    -4.5750  
    1.26000n   -5.7402    -5.2343    -4.9353    -4.8197  
    1.27000n   -6.0346    -5.5039    -5.1869    -5.0643  
    1.28000n   -6.3291    -5.7735    -5.4385    -5.3090  
    1.29000n   -6.6235    -6.0431    -5.6901    -5.5536  
    1.30000n   -6.9180    -6.3127    -5.9417    -5.7983  
    1.31000n   -7.2124    -6.5823    -6.1933    -6.0430  
    1.32000n   -7.5069    -6.8519    -6.4449    -6.2876  
    1.33000n   -7.8013    -7.1216    -6.6965    -6.5323  
    1.34000n   -8.0958    -7.3912    -6.9481    -6.7770  
    1.35000n   -8.3902    -7.6608    -7.1997    -7.0216  
    1.36000n   -8.6846    -7.9304    -7.4513    -7.2663  
    1.37000n   -8.9791    -8.2000    -7.7029    -7.5110  
    1.38000n   -9.2735    -8.4696    -7.9545    -7.7556  
    1.39000n   -9.5680    -8.7392    -8.2061    -8.0003  
    1.40000n   -9.8624    -9.0088    -8.4577    -8.2450  
    1.41000n  -10.1569    -9.2785    -8.7093    -8.4896  
    1.42000n  -10.4513    -9.5481    -8.9609    -8.7343  
    1.43000n  -10.7458    -9.8177    -9.2125    -8.9790  
    1.44000n  -11.0871   -10.1455    -9.5250    -9.2861  
    1.45000n  -11.4748   -10.5309    -9.8978    -9.6552  
    1.46000n  -11.8625   -10.9164   -10.2707   -10.0242  
    1.47000n  -12.2502   -11.3018   -10.6436   -10.3933  
    1.48000n  -12.6379   -11.6873   -11.0164   -10.7623  
    1.49000n  -13.0256   -12.0727   -11.3893   -11.1314  
    1.50000n  -13.4133   -12.4582   -11.7622   -11.5005  
    1.51000n  -13.7098   -12.7999   -12.1258   -11.8767  
    1.52000n  -14.0063   -13.1416   -12.4895   -12.2529  
    1.53000n  -14.3028   -13.4833   -12.8532   -12.6292  
    1.54000n  -14.5993   -13.8251   -13.2168   -13.0054  
    1.55000n  -14.8959   -14.1668   -13.5805   -13.3816  
    1.56000n  -15.1924   -14.5085   -13.9442   -13.7579  
    1.57000n  -15.4889   -14.8502   -14.3079   -14.1341  
    1.58000n  -15.7854   -15.1920   -14.6715   -14.5104  
    1.59000n  -16.0819   -15.5337   -15.0352   -14.8866  
    1.60000n  -16.3785   -15.8754   -15.3989   -15.2628  
    1.61000n  -16.6791   -16.2238   -15.7715   -15.6491  
    1.62000n  -16.9825   -16.5768   -16.1503   -16.0421  
    1.63000n  -17.2860   -16.9297   -16.5290   -16.4351  
    1.64000n  -17.5894   -17.2827   -16.9077   -16.8281  
    1.65000n  -17.9230   -17.6737   -17.3306   -17.2658  
    1.66000n  -18.2616   -18.0708   -17.7607   -17.7107  
    1.67000n  -18.6001   -18.4680   -18.1908   -18.1557  
    1.68000n  -18.9386   -18.8652   -18.6208   -18.6006  
    1.69000n  -19.2772   -19.2624   -19.0509   -19.0455  
    1.70000n  -19.6157   -19.6595   -19.4810   -19.4905  
    1.71000n  -19.9542   -20.0567   -19.9110   -19.9354  
    1.72000n  -20.2928   -20.4539   -20.3411   -20.3804  
    1.73000n  -20.6313   -20.8511   -20.7711   -20.8253  
    1.74000n  -20.9699   -21.2482   -21.2012   -21.2702  
    1.75000n  -21.3084   -21.6454   -21.6313   -21.7152  
    1.76000n  -21.6469   -22.0426   -22.0613   -22.1601  
    1.77000n  -22.0023   -22.4400   -22.4843   -22.5902  
    1.78000n  -22.3594   -22.8374   -22.9065   -23.0187  
    1.79000n  -22.7165   -23.2349   -23.3286   -23.4472  
    1.80000n  -23.0736   -23.6323   -23.7508   -23.8757  
    1.81000n  -23.4307   -24.0297   -24.1730   -24.3042  
    1.82000n  -23.7878   -24.4272   -24.5952   -24.7326  
    1.83000n  -24.1449   -24.8246   -25.0174   -25.1611  
    1.84000n  -24.5020   -25.2220   -25.4396   -25.5896  
    1.85000n  -24.8591   -25.6194   -25.8618   -26.0181  
    1.86000n  -25.2162   -26.0169   -26.2839   -26.4466  
    1.87000n  -25.5733   -26.4143   -26.7061   -26.8751  
    1.88000n  -25.9305   -26.8117   -27.1283   -27.3036  
    1.89000n  -26.2876   -27.2092   -27.5505   -27.7321  
    1.90000n  -26.6447   -27.6066   -27.9727   -28.1606  
    1.91000n  -27.0018   -28.0040   -28.3949   -28.5890  
    1.92000n  -27.3589   -28.4015   -28.8170   -29.0175  
    1.93000n  -27.7160   -28.7989   -29.2392   -29.4460  
    1.94000n  -28.0731   -29.1963   -29.6614   -29.8745  
    1.95000n  -28.4302   -29.5938   -30.0836   -30.3030  
    1.96000n  -28.7873   -29.9912   -30.5058   -30.7315  
    1.97000n  -29.1444   -30.3886   -30.9280   -31.1600  
    1.98000n  -29.5015   -30.7861   -31.3501   -31.5885  
    1.99000n  -29.8067   -31.1097   -31.6866   -31.9264  
    2.00000n  -30.0538   -31.3510   -31.9275   -32.1631  
    2.01000n  -30.3009   -31.5924   -32.1683   -32.3998  
    2.02000n  -30.5481   -31.8337   -32.4091   -32.6365  
    2.03000n  -30.7952   -32.0750   -32.6499   -32.8732  
    2.04000n  -31.0423   -32.3163   -32.8907   -33.1099  
    2.05000n  -31.2895   -32.5576   -33.1315   -33.3466  
    2.06000n  -31.5366   -32.7989   -33.3723   -33.5833  
    2.07000n  -31.7837   -33.0403   -33.6132   -33.8200  
    2.08000n  -32.0308   -33.2816   -33.8540   -34.0567  
    2.09000n  -32.2780   -33.5229   -34.0948   -34.2934  
    2.10000n  -32.5251   -33.7642   -34.3356   -34.5301  
    2.11000n  -32.7722   -34.0055   -34.5764   -34.7668  
    2.12000n  -33.0193   -34.2468   -34.8172   -35.0035  
    2.13000n  -33.2665   -34.4882   -35.0581   -35.2402  
    2.14000n  -33.5136   -34.7295   -35.2989   -35.4769  
    2.15000n  -33.7607   -34.9708   -35.5397   -35.7136  
    2.16000n  -34.0079   -35.2121   -35.7805   -35.9503  
    2.17000n  -34.2550   -35.4534   -36.0213   -36.1870  
    2.18000n  -34.5021   -35.6947   -36.2621   -36.4237  
    2.19000n  -34.5858   -35.7588   -36.3168   -36.4736  
    2.20000n  -34.6114   -35.7598   -36.3052   -36.4570  
    2.21000n  -34.6370   -35.7608   -36.2937   -36.4405  
    2.22000n  -34.6627   -35.7618   -36.2821   -36.4240  
    2.23000n  -34.6883   -35.7628   -36.2706   -36.4075  
    2.24000n  -34.7139   -35.7638   -36.2590   -36.3909  
    2.25000n  -34.7395   -35.7648   -36.2474   -36.3744  
    2.26000n  -34.7651   -35.7658   -36.2359   -36.3579  
    2.27000n  -34.7907   -35.7669   -36.2243   -36.3414  
    2.28000n  -34.8163   -35.7679   -36.2128   -36.3249  
    2.29000n  -34.8419   -35.7689   -36.2012   -36.3083  
    2.30000n  -34.8675   -35.7699   -36.1897   -36.2918  
    2.31000n  -34.8931   -35.7709   -36.1781   -36.2753  
    2.32000n  -34.9188   -35.7719   -36.1666   -36.2588  
    2.33000n  -34.9444   -35.7729   -36.1550   -36.2422  
    2.34000n  -34.9700   -35.7739   -36.1435   -36.2257  
    2.35000n  -34.9956   -35.7749   -36.1319   -36.2092  
    2.36000n  -35.0212   -35.7759   -36.1203   -36.1927  
    2.37000n  -35.0468   -35.7769   -36.1088   -36.1761  
    2.38000n  -35.0724   -35.7780   -36.0972   -36.1596  
    2.39000n  -35.0980   -35.7790   -36.0857   -36.1431  
    2.40000n  -35.1236   -35.7800   -36.0741   -36.1266  
    2.41000n  -35.1492   -35.7810   -36.0626   -36.1100  
    2.42000n  -35.1749   -35.7820   -36.0510   -36.0935  
    2.43000n  -35.2005   -35.7830   -36.0395   -36.0770  
    2.44000n  -35.1681   -35.7277   -35.9732   -36.0070  
    2.45000n  -35.0955   -35.6333   -35.8688   -35.8998  
    2.46000n  -35.0228   -35.5389   -35.7645   -35.7926  
    2.47000n  -34.9502   -35.4445   -35.6602   -35.6854  
    2.48000n  -34.8776   -35.3500   -35.5558   -35.5782  
    2.49000n  -34.8049   -35.2556   -35.4515   -35.4710  
    2.50000n  -34.7323   -35.1612   -35.3472   -35.3638  
    2.51000n  -34.6597   -35.0668   -35.2428   -35.2566  
    2.52000n  -34.5871   -34.9724   -35.1385   -35.1495  
    2.53000n  -34.5144   -34.8780   -35.0342   -35.0423  
    2.54000n  -34.4418   -34.7836   -34.9299   -34.9351  
    2.55000n  -34.3692   -34.6892   -34.8255   -34.8279  
    2.56000n  -34.2965   -34.5948   -34.7212   -34.7207  
    2.57000n  -34.2239   -34.5003   -34.6169   -34.6135  
    2.58000n  -34.1513   -34.4059   -34.5125   -34.5063  
    2.59000n  -34.0786   -34.3115   -34.4082   -34.3992  
    2.60000n  -34.0060   -34.2171   -34.3039   -34.2920  
    2.61000n  -33.9334   -34.1227   -34.1995   -34.1848  
    2.62000n  -33.8608   -34.0283   -34.0952   -34.0776  
    2.63000n  -33.7881   -33.9339   -33.9909   -33.9704  
    2.64000n  -33.7155   -33.8395   -33.8865   -33.8632  
    2.65000n  -33.6429   -33.7451   -33.7822   -33.7560  
    2.66000n  -33.5702   -33.6507   -33.6779   -33.6488  
    2.67000n  -33.4976   -33.5562   -33.5736   -33.5417  
    2.68000n  -33.4500   -33.5003   -33.5123   -33.4786  
    2.69000n  -33.4038   -33.4465   -33.4534   -33.4179  
    2.70000n  -33.3576   -33.3926   -33.3944   -33.3572  
    2.71000n  -33.3113   -33.3387   -33.3355   -33.2965  
    2.72000n  -33.2651   -33.2849   -33.2765   -33.2359  
    2.73000n  -33.2189   -33.2310   -33.2176   -33.1752  
    2.74000n  -33.1726   -33.1772   -33.1586   -33.1145  
    2.75000n  -33.1264   -33.1233   -33.0996   -33.0538  
    2.76000n  -33.0802   -33.0694   -33.0407   -32.9931  
    2.77000n  -33.0339   -33.0156   -32.9817   -32.9324  
    2.78000n  -32.9877   -32.9617   -32.9228   -32.8717  
    2.79000n  -32.9415   -32.9079   -32.8638   -32.8110  
    2.80000n  -32.8952   -32.8540   -32.8049   -32.7504  
    2.81000n  -32.8490   -32.8001   -32.7459   -32.6897  
    2.82000n  -32.8028   -32.7463   -32.6870   -32.6290  
    2.83000n  -32.7565   -32.6924   -32.6280   -32.5683  
    2.84000n  -32.7103   -32.6386   -32.5691   -32.5076  
    2.85000n  -32.6641   -32.5847   -32.5101   -32.4469  
    2.86000n  -32.6178   -32.5308   -32.4512   -32.3862  
    2.87000n  -32.5716   -32.4770   -32.3922   -32.3255  
    2.88000n  -32.5254   -32.4231   -32.3333   -32.2649  
    2.89000n  -32.4792   -32.3692   -32.2743   -32.2042  
    2.90000n  -32.4329   -32.3154   -32.2154   -32.1435  
    2.91000n  -32.3867   -32.2615   -32.1564   -32.0828  
    2.92000n  -32.3405   -32.2077   -32.0975   -32.0221  
    2.93000n  -32.2942   -32.1538   -32.0385   -31.9614  
    2.94000n  -32.2289   -32.0871   -31.9723   -31.8971  
    2.95000n  -32.1469   -32.0093   -31.8998   -31.8295  
    2.96000n  -32.0649   -31.9315   -31.8273   -31.7620  
    2.97000n  -31.9830   -31.8537   -31.7548   -31.6945  
    2.98000n  -31.9010   -31.7759   -31.6822   -31.6270  
    2.99000n  -31.8190   -31.6981   -31.6097   -31.5594  
    3.00000n  -31.7370   -31.6203   -31.5372   -31.4919  
    3.01000n  -31.6551   -31.5424   -31.4647   -31.4244  
    3.02000n  -31.5731   -31.4646   -31.3921   -31.3569  
    3.03000n  -31.4911   -31.3868   -31.3196   -31.2893  
    3.04000n  -31.4091   -31.3090   -31.2471   -31.2218  
    3.05000n  -31.3272   -31.2312   -31.1746   -31.1543  
    3.06000n  -31.2452   -31.1534   -31.1020   -31.0868  
    3.07000n  -31.1632   -31.0756   -31.0295   -31.0192  
    3.08000n  -31.0812   -30.9977   -30.9570   -30.9517  
    3.09000n  -30.9992   -30.9199   -30.8845   -30.8842  
    3.10000n  -30.9173   -30.8421   -30.8119   -30.8166  
    3.11000n  -30.8353   -30.7643   -30.7394   -30.7491  
    3.12000n  -30.7533   -30.6865   -30.6669   -30.6816  
    3.13000n  -30.6713   -30.6087   -30.5944   -30.6141  
    3.14000n  -30.5894   -30.5309   -30.5218   -30.5465  
    3.15000n  -30.5074   -30.4530   -30.4493   -30.4790  
    3.16000n  -30.4254   -30.3752   -30.3768   -30.4115  
    3.17000n  -30.3434   -30.2974   -30.3043   -30.3440  
    3.18000n  -30.2615   -30.2196   -30.2317   -30.2764  
    3.19000n  -30.1795   -30.1418   -30.1592   -30.2089  
    3.20000n  -30.0975   -30.0640   -30.0867   -30.1414  
    3.21000n  -30.0155   -29.9862   -30.0142   -30.0739  
    3.22000n  -29.9335   -29.9084   -29.9416   -30.0063  
    3.23000n  -29.8601   -29.8340   -29.8688   -29.9356  
    3.24000n  -29.7977   -29.7641   -29.7955   -29.8607  
    3.25000n  -29.7353   -29.6942   -29.7221   -29.7858  
    3.26000n  -29.6729   -29.6243   -29.6488   -29.7109  
    3.27000n  -29.6106   -29.5545   -29.5755   -29.6359  
    3.28000n  -29.5482   -29.4846   -29.5022   -29.5610  
    3.29000n  -29.4858   -29.4147   -29.4289   -29.4861  
    3.30000n  -29.4234   -29.3448   -29.3556   -29.4112  
    3.31000n  -29.3610   -29.2749   -29.2823   -29.3363  
    3.32000n  -29.2987   -29.2050   -29.2090   -29.2614  
    3.33000n  -29.2363   -29.1352   -29.1357   -29.1865  
    3.34000n  -29.1739   -29.0653   -29.0624   -29.1116  
    3.35000n  -29.1115   -28.9954   -28.9891   -29.0367  
    3.36000n  -29.0491   -28.9255   -28.9157   -28.9617  
    3.37000n  -28.9867   -28.8556   -28.8424   -28.8868  
    3.38000n  -28.9244   -28.7858   -28.7691   -28.8119  
    3.39000n  -28.8620   -28.7159   -28.6958   -28.7370  
    3.40000n  -28.7996   -28.6460   -28.6225   -28.6621  
    3.41000n  -28.7372   -28.5761   -28.5492   -28.5872  
    3.42000n  -28.6748   -28.5062   -28.4759   -28.5123  
    3.43000n  -28.6124   -28.4363   -28.4026   -28.4374  
    3.44000n  -28.5501   -28.3665   -28.3293   -28.3625  
    3.45000n  -28.4877   -28.2966   -28.2560   -28.2875  
    3.46000n  -28.4253   -28.2267   -28.1827   -28.2126  
    3.47000n  -28.3629   -28.1568   -28.1093   -28.1377  
    3.48000n  -28.3005   -28.0869   -28.0360   -28.0628  
    3.49000n  -28.2381   -28.0171   -27.9627   -27.9879  
    3.50000n  -28.1758   -27.9472   -27.8894   -27.9130  
    3.51000n  -28.1246   -27.8898   -27.8287   -27.8503  
    3.52000n  -28.1385   -27.9053   -27.8414   -27.8589  
    3.53000n  -28.1524   -27.9208   -27.8540   -27.8676  
    3.54000n  -28.1664   -27.9363   -27.8667   -27.8762  
    3.55000n  -28.1803   -27.9517   -27.8794   -27.8848  
    3.56000n  -28.1942   -27.9672   -27.8920   -27.8934  
    3.57000n  -28.2082   -27.9827   -27.9047   -27.9020  
    3.58000n  -28.2221   -27.9982   -27.9174   -27.9106  
    3.59000n  -28.2361   -28.0137   -27.9300   -27.9192  
    3.60000n  -28.2500   -28.0292   -27.9427   -27.9279  
    3.61000n  -28.2639   -28.0447   -27.9553   -27.9365  
    3.62000n  -28.2779   -28.0601   -27.9680   -27.9451  
    3.63000n  -28.2918   -28.0756   -27.9807   -27.9537  
    3.64000n  -28.3057   -28.0911   -27.9933   -27.9623  
    3.65000n  -28.3197   -28.1066   -28.0060   -27.9709  
    3.66000n  -28.3336   -28.1221   -28.0186   -27.9796  
    3.67000n  -28.3475   -28.1376   -28.0313   -27.9882  
    3.68000n  -28.3615   -28.1530   -28.0440   -27.9968  
    3.69000n  -28.3754   -28.1685   -28.0566   -28.0054  
    3.70000n  -28.3893   -28.1840   -28.0693   -28.0140  
    3.71000n  -28.4033   -28.1995   -28.0820   -28.0226  
    3.72000n  -28.4172   -28.2150   -28.0946   -28.0312  
    3.73000n  -28.4311   -28.2305   -28.1073   -28.0399  
    3.74000n  -28.4451   -28.2459   -28.1199   -28.0485  
    3.75000n  -28.4590   -28.2614   -28.1326   -28.0571  
    3.76000n  -28.4730   -28.2769   -28.1453   -28.0657  
    3.77000n  -28.4869   -28.2924   -28.1579   -28.0743  
    3.78000n  -28.5008   -28.3079   -28.1706   -28.0829  
    3.79000n  -28.5148   -28.3234   -28.1832   -28.0915  
    3.80000n  -28.5287   -28.3389   -28.1959   -28.1002  
    3.81000n  -28.5426   -28.3543   -28.2086   -28.1088  
    3.82000n  -28.5566   -28.3698   -28.2212   -28.1174  
    3.83000n  -28.5705   -28.3853   -28.2339   -28.1260  
    3.84000n  -28.5844   -28.4008   -28.2466   -28.1346  
    3.85000n  -28.5984   -28.4163   -28.2592   -28.1432  
    3.86000n  -28.6176   -28.4386   -28.2813   -28.1637  
    3.87000n  -28.6486   -28.4760   -28.3242   -28.2104  
    3.88000n  -28.6795   -28.5134   -28.3672   -28.2572  
    3.89000n  -28.7105   -28.5508   -28.4101   -28.3039  
    3.90000n  -28.7414   -28.5882   -28.4530   -28.3506  
    3.91000n  -28.7724   -28.6256   -28.4959   -28.3973  
    3.92000n  -28.8033   -28.6630   -28.5388   -28.4440  
    3.93000n  -28.8343   -28.7004   -28.5818   -28.4907  
    3.94000n  -28.8652   -28.7378   -28.6247   -28.5374  
    3.95000n  -28.8962   -28.7752   -28.6676   -28.5841  
    3.96000n  -28.9271   -28.8126   -28.7105   -28.6308  
    3.97000n  -28.9581   -28.8499   -28.7534   -28.6775  
    3.98000n  -28.9891   -28.8873   -28.7964   -28.7242  
    3.99000n  -29.0200   -28.9247   -28.8393   -28.7710  
    4.00000n  -29.0510   -28.9621   -28.8822   -28.8177  
    4.01000n  -29.0819   -28.9995   -28.9251   -28.8644  
    4.02000n  -29.1129   -29.0369   -28.9681   -28.9111  
    4.03000n  -29.1438   -29.0743   -29.0110   -28.9578  
    4.04000n  -29.1748   -29.1117   -29.0539   -29.0045  
    4.05000n  -29.2057   -29.1491   -29.0968   -29.0512  
    4.06000n  -29.2367   -29.1865   -29.1397   -29.0979  
    4.07000n  -29.2676   -29.2239   -29.1827   -29.1446  
    4.08000n  -29.2986   -29.2613   -29.2256   -29.1913  
    4.09000n  -29.3295   -29.2987   -29.2685   -29.2380  
    4.10000n  -29.3605   -29.3361   -29.3114   -29.2848  
    4.11000n  -29.3914   -29.3735   -29.3543   -29.3315  
    4.12000n  -29.4224   -29.4109   -29.3973   -29.3782  
    4.13000n  -29.4534   -29.4483   -29.4402   -29.4249  
    4.14000n  -29.4843   -29.4857   -29.4831   -29.4716  
    4.15000n  -29.5153   -29.5231   -29.5260   -29.5183  
    4.16000n  -29.5462   -29.5605   -29.5689   -29.5650  
    4.17000n  -29.5772   -29.5979   -29.6119   -29.6117  
    4.18000n  -29.6081   -29.6353   -29.6548   -29.6584  
    4.19000n  -29.6391   -29.6727   -29.6977   -29.7051  
    4.20000n  -29.6680   -29.7071   -29.7367   -29.7473  
    4.21000n  -29.6864   -29.7267   -29.7560   -29.7661  
    4.22000n  -29.7048   -29.7462   -29.7752   -29.7849  
    4.23000n  -29.7233   -29.7658   -29.7944   -29.8037  
    4.24000n  -29.7417   -29.7854   -29.8136   -29.8225  
    4.25000n  -29.7602   -29.8049   -29.8328   -29.8413  
    4.26000n  -29.7786   -29.8245   -29.8521   -29.8601  
    4.27000n  -29.7970   -29.8440   -29.8713   -29.8789  
    4.28000n  -29.8155   -29.8636   -29.8905   -29.8977  
    4.29000n  -29.8339   -29.8831   -29.9097   -29.9165  
    4.30000n  -29.8524   -29.9027   -29.9289   -29.9354  
    4.31000n  -29.8708   -29.9223   -29.9482   -29.9542  
    4.32000n  -29.8892   -29.9418   -29.9674   -29.9730  
    4.33000n  -29.9077   -29.9614   -29.9866   -29.9918  
    4.34000n  -29.9261   -29.9809   -30.0058   -30.0106  
    4.35000n  -29.9445   -30.0005   -30.0250   -30.0294  
    4.36000n  -29.9630   -30.0200   -30.0443   -30.0482  
    4.37000n  -29.9814   -30.0396   -30.0635   -30.0670  
    4.38000n  -29.9999   -30.0592   -30.0827   -30.0858  
    4.39000n  -30.0183   -30.0787   -30.1019   -30.1046  
    4.40000n  -30.0367   -30.0983   -30.1211   -30.1234  
    4.41000n  -30.0552   -30.1178   -30.1404   -30.1422  
    4.42000n  -30.0736   -30.1374   -30.1596   -30.1611  
    4.43000n  -30.0920   -30.1569   -30.1788   -30.1799  
    4.44000n  -30.1105   -30.1765   -30.1980   -30.1987  
    4.45000n  -30.1289   -30.1960   -30.2172   -30.2175  
    4.46000n  -30.1474   -30.2156   -30.2365   -30.2363  
    4.47000n  -30.1658   -30.2352   -30.2557   -30.2551  
    4.48000n  -30.1842   -30.2547   -30.2749   -30.2739  
    4.49000n  -30.2027   -30.2743   -30.2941   -30.2927  
    4.50000n  -30.2211   -30.2938   -30.3133   -30.3115  
    4.51000n  -30.2396   -30.3134   -30.3326   -30.3303  
    4.52000n  -30.2580   -30.3329   -30.3518   -30.3491  
    4.53000n  -30.2764   -30.3525   -30.3710   -30.3679  
    4.54000n  -30.2949   -30.3721   -30.3902   -30.3868  
    4.55000n  -30.3133   -30.3916   -30.4094   -30.4056  
    4.56000n  -30.3317   -30.4112   -30.4287   -30.4244  
    4.57000n  -30.3502   -30.4307   -30.4479   -30.4432  
    4.58000n  -30.3528   -30.4330   -30.4514   -30.4482  
    4.59000n  -30.3544   -30.4341   -30.4540   -30.4523  
    4.60000n  -30.3560   -30.4352   -30.4565   -30.4564  
    4.61000n  -30.3576   -30.4363   -30.4590   -30.4605  
    4.62000n  -30.3592   -30.4375   -30.4616   -30.4646  
    4.63000n  -30.3608   -30.4386   -30.4641   -30.4687  
    4.64000n  -30.3624   -30.4397   -30.4667   -30.4728  
    4.65000n  -30.3640   -30.4408   -30.4692   -30.4769  
    4.66000n  -30.3656   -30.4419   -30.4717   -30.4810  
    4.67000n  -30.3672   -30.4430   -30.4743   -30.4851  
    4.68000n  -30.3688   -30.4442   -30.4768   -30.4892  
    4.69000n  -30.3704   -30.4453   -30.4793   -30.4933  
    4.70000n  -30.3720   -30.4464   -30.4819   -30.4974  
    4.71000n  -30.3736   -30.4475   -30.4844   -30.5015  
    4.72000n  -30.3752   -30.4486   -30.4869   -30.5056  
    4.73000n  -30.3768   -30.4497   -30.4895   -30.5097  
    4.74000n  -30.3784   -30.4509   -30.4920   -30.5138  
    4.75000n  -30.3800   -30.4520   -30.4946   -30.5179  
    4.76000n  -30.3817   -30.4531   -30.4971   -30.5220  
    4.77000n  -30.3833   -30.4542   -30.4996   -30.5261  
    4.78000n  -30.3849   -30.4553   -30.5022   -30.5301  
    4.79000n  -30.3865   -30.4564   -30.5047   -30.5342  
    4.80000n  -30.3881   -30.4575   -30.5072   -30.5383  
    4.81000n  -30.3897   -30.4587   -30.5098   -30.5424  
    4.82000n  -30.3913   -30.4598   -30.5123   -30.5465  
    4.83000n  -30.3929   -30.4609   -30.5148   -30.5506  
    4.84000n  -30.3945   -30.4620   -30.5174   -30.5547  
    4.85000n  -30.3961   -30.4631   -30.5199   -30.5588  
    4.86000n  -30.3977   -30.4642   -30.5224   -30.5629  
    4.87000n  -30.3993   -30.4654   -30.5250   -30.5670  
    4.88000n  -30.4009   -30.4665   -30.5275   -30.5711  
    4.89000n  -30.4025   -30.4676   -30.5301   -30.5752  
    4.90000n  -30.4041   -30.4687   -30.5326   -30.5793  
    4.91000n  -30.4057   -30.4698   -30.5351   -30.5834  
    4.92000n  -30.4073   -30.4709   -30.5377   -30.5875  
    4.93000n  -30.4089   -30.4721   -30.5402   -30.5916  
    4.94000n  -30.4074   -30.4696   -30.5366   -30.5872  
    4.95000n  -30.4054   -30.4665   -30.5317   -30.5811  
    4.96000n  -30.4034   -30.4633   -30.5269   -30.5750  
    4.97000n  -30.4013   -30.4602   -30.5220   -30.5689  
    4.98000n  -30.3993   -30.4570   -30.5172   -30.5628  
    4.99000n  -30.3973   -30.4539   -30.5124   -30.5568  
    5.00000n  -30.3952   -30.4507   -30.5075   -30.5507  
    5.01000n  -30.3932   -30.4476   -30.5027   -30.5446  
    5.02000n  -30.3912   -30.4444   -30.4978   -30.5385  
    5.03000n  -30.3891   -30.4413   -30.4930   -30.5324  
    5.04000n  -30.3871   -30.4381   -30.4881   -30.5263  
    5.05000n  -30.3851   -30.4350   -30.4833   -30.5202  
    5.06000n  -30.3830   -30.4318   -30.4785   -30.5141  
    5.07000n  -30.3810   -30.4287   -30.4736   -30.5081  
    5.08000n  -30.3789   -30.4255   -30.4688   -30.5020  
    5.09000n  -30.3769   -30.4224   -30.4639   -30.4959  
    5.10000n  -30.3749   -30.4192   -30.4591   -30.4898  
    5.11000n  -30.3728   -30.4161   -30.4543   -30.4837  
    5.12000n  -30.3708   -30.4129   -30.4494   -30.4776  
    5.13000n  -30.3688   -30.4098   -30.4446   -30.4715  
    5.14000n  -30.3667   -30.4066   -30.4397   -30.4654  
    5.15000n  -30.3647   -30.4035   -30.4349   -30.4594  
    5.16000n  -30.3627   -30.4003   -30.4300   -30.4533  
    5.17000n  -30.3606   -30.3972   -30.4252   -30.4472  
    5.18000n  -30.3586   -30.3940   -30.4204   -30.4411  
    5.19000n  -30.3566   -30.3909   -30.4155   -30.4350  
    5.20000n  -30.3545   -30.3877   -30.4107   -30.4289  
    5.21000n  -30.3525   -30.3846   -30.4058   -30.4228  
    5.22000n  -30.3505   -30.3814   -30.4010   -30.4167  
    5.23000n  -30.3484   -30.3783   -30.3962   -30.4107  
    5.24000n  -30.3464   -30.3751   -30.3913   -30.4046  
    5.25000n  -30.3444   -30.3720   -30.3865   -30.3985  
    5.26000n  -30.3423   -30.3688   -30.3816   -30.3924  
    5.27000n  -30.3403   -30.3657   -30.3768   -30.3863  
    5.28000n  -30.3383   -30.3625   -30.3719   -30.3802  
    5.29000n  -30.3362   -30.3594   -30.3671   -30.3741  
    5.30000n  -30.3342   -30.3562   -30.3623   -30.3680  
    5.31000n  -30.3322   -30.3531   -30.3574   -30.3620  
    5.32000n  -30.3301   -30.3499   -30.3526   -30.3559  
    5.33000n  -30.3281   -30.3468   -30.3477   -30.3498  
    5.34000n  -30.3261   -30.3436   -30.3429   -30.3437  
    5.35000n  -30.3240   -30.3405   -30.3381   -30.3376  
    5.36000n  -30.3220   -30.3373   -30.3332   -30.3315  
    5.37000n  -30.3199   -30.3342   -30.3284   -30.3254  
    5.38000n  -30.3179   -30.3310   -30.3235   -30.3194  
    5.39000n  -30.3159   -30.3279   -30.3187   -30.3133  
    5.40000n  -30.3138   -30.3247   -30.3138   -30.3072  
    5.41000n  -30.3118   -30.3216   -30.3090   -30.3011  
    5.42000n  -30.3098   -30.3184   -30.3042   -30.2950  
    5.43000n  -30.3068   -30.3153   -30.3000   -30.2898  
    5.44000n  -30.2986   -30.3120   -30.2998   -30.2897  
    5.45000n  -30.2904   -30.3088   -30.2997   -30.2896  
    5.46000n  -30.2821   -30.3056   -30.2995   -30.2895  
    5.47000n  -30.2739   -30.3023   -30.2993   -30.2894  
    5.48000n  -30.2657   -30.2991   -30.2991   -30.2893  
    5.49000n  -30.2575   -30.2958   -30.2990   -30.2892  
    5.50000n  -30.2493   -30.2926   -30.2988   -30.2891  
    5.51000n  -30.0534   -30.1099   -30.1254   -30.1212  
    5.52000n  -29.8575   -29.9273   -29.9520   -29.9534  
    5.53000n  -29.6617   -29.7446   -29.7786   -29.7855  
    5.54000n  -29.4658   -29.5620   -29.6052   -29.6177  
    5.55000n  -29.2699   -29.3793   -29.4318   -29.4498  
    5.56000n  -29.0741   -29.1966   -29.2584   -29.2820  
    5.57000n  -28.8782   -29.0140   -29.0850   -29.1141  
    5.58000n  -28.6824   -28.8313   -28.9116   -28.9463  
    5.59000n  -28.4865   -28.6487   -28.7382   -28.7784  
    5.60000n  -28.2906   -28.4660   -28.5648   -28.6105  
    5.61000n  -28.0948   -28.2833   -28.3914   -28.4427  
    5.62000n  -27.8934   -28.0967   -28.2141   -28.2705  
    5.63000n  -27.6876   -27.9070   -28.0337   -28.0947  
    5.64000n  -27.4819   -27.7172   -27.8532   -27.9190  
    5.65000n  -27.2761   -27.5274   -27.6728   -27.7433  
    5.66000n  -27.0288   -27.3046   -27.4639   -27.5394  
    5.67000n  -26.7723   -27.0743   -27.2487   -27.3292  
    5.68000n  -26.5157   -26.8441   -27.0335   -27.1191  
    5.69000n  -26.2592   -26.6138   -26.8183   -26.9089  
    5.70000n  -26.0026   -26.3836   -26.6031   -26.6987  
    5.71000n  -25.7461   -26.1533   -26.3878   -26.4886  
    5.72000n  -25.4895   -25.9231   -26.1726   -26.2784  
    5.73000n  -25.2330   -25.6928   -25.9574   -26.0683  
    5.74000n  -24.9765   -25.4625   -25.7422   -25.8581  
    5.75000n  -24.7199   -25.2323   -25.5270   -25.6479  
    5.76000n  -24.4634   -25.0020   -25.3118   -25.4378  
    5.77000n  -24.2068   -24.7718   -25.0966   -25.2276  
    5.78000n  -23.8732   -24.4523   -24.7904   -24.9252  
    5.79000n  -23.5261   -24.1173   -24.4683   -24.6066  
    5.80000n  -23.1791   -23.7822   -24.1462   -24.2881  
    5.81000n  -22.8320   -23.4471   -23.8240   -23.9695  
    5.82000n  -22.4849   -23.1121   -23.5019   -23.6509  
    5.83000n  -22.1378   -22.7770   -23.1798   -23.3324  
    5.84000n  -21.7907   -22.4420   -22.8577   -23.0138  
    5.85000n  -21.4437   -22.1069   -22.5356   -22.6952  
    5.86000n  -21.0966   -21.7719   -22.2135   -22.3767  
    5.87000n  -20.7495   -21.4368   -21.8914   -22.0581  
    5.88000n  -20.4024   -21.1017   -21.5693   -21.7395  
    5.89000n  -20.0554   -20.7667   -21.2471   -21.4210  
    5.90000n  -19.7083   -20.4316   -20.9250   -21.1024  
    5.91000n  -19.3612   -20.0966   -20.6029   -20.7838  
    5.92000n  -19.0141   -19.7615   -20.2808   -20.4653  
    5.93000n  -18.6671   -19.4265   -19.9587   -20.1467  
    5.94000n  -18.3200   -19.0914   -19.6366   -19.8281  
    5.95000n  -17.9729   -18.7563   -19.3145   -19.5096  
    5.96000n  -17.6258   -18.4213   -18.9924   -19.1910  
    5.97000n  -17.2788   -18.0862   -18.6703   -18.8724  
    5.98000n  -16.9267   -17.7436   -18.3394   -18.5447  
    5.99000n  -16.5289   -17.3314   -17.9288   -18.1330  
    6.00000n  -16.1310   -16.9192   -17.5182   -17.7214  
    6.01000n  -15.8567   -16.6171   -17.2045   -17.3987  
    6.02000n  -15.5823   -16.3150   -16.8907   -17.0760  
    6.03000n  -15.3080   -16.0129   -16.5770   -16.7533  
    6.04000n  -15.0317   -15.7070   -16.2573   -16.4234  
    6.05000n  -14.7543   -15.3989   -15.9343   -16.0894  
    6.06000n  -14.4768   -15.0909   -15.6113   -15.7555  
    6.07000n  -14.1776   -14.7526   -15.2529   -15.3843  
    6.08000n  -13.8733   -14.4072   -14.8862   -15.0044  
    6.09000n  -13.5690   -14.0618   -14.5194   -14.6246  
    6.10000n  -13.2647   -13.7164   -14.1527   -14.2447  
    6.11000n  -12.9604   -13.3710   -13.7860   -13.8648  
    6.12000n  -12.6560   -13.0256   -13.4193   -13.4849  
    6.13000n  -12.3517   -12.6803   -13.0526   -13.1050  
    6.14000n  -12.0108   -12.2786   -12.6195   -12.6593  
    6.15000n  -11.6630   -11.8664   -12.1739   -12.2013  
    6.16000n  -11.3153   -11.4541   -11.7284   -11.7432  
    6.17000n  -10.9675   -11.0419   -11.2828   -11.2852  
    6.18000n  -10.6197   -10.6297   -10.8372   -10.8271  
    6.19000n  -10.2719   -10.2175   -10.3916   -10.3691  
    6.20000n   -9.9242    -9.8052    -9.9461    -9.9110  
    6.21000n   -9.5764    -9.3930    -9.5005    -9.4530  
    6.22000n   -9.2286    -8.9808    -9.0549    -8.9950  
    6.23000n   -8.8808    -8.5686    -8.6094    -8.5369  
    6.24000n   -8.5330    -8.1563    -8.1638    -8.0789  
    6.25000n   -8.1853    -7.7441    -7.7182    -7.6208  
    6.26000n   -7.8375    -7.3319    -7.2727    -7.1628  
    6.27000n   -7.4897    -6.9196    -6.8271    -6.7047  
    6.28000n   -7.1419    -6.5074    -6.3815    -6.2467  
    6.29000n   -6.7941    -6.0952    -5.9360    -5.7886  
    6.30000n   -6.4315    -5.6773    -5.4848    -5.3262  
    6.31000n   -6.0533    -5.2535    -5.0277    -4.8592  
    6.32000n   -5.6751    -4.8296    -4.5707    -4.3921  
    6.33000n   -5.2969    -4.4058    -4.1137    -3.9251  
    6.34000n   -4.9187    -3.9820    -3.6567    -3.4580  
    6.35000n   -4.5405    -3.5582    -3.1996    -2.9910  
    6.36000n   -4.1623    -3.1343    -2.7426    -2.5239  
    6.37000n   -3.7840    -2.7105    -2.2856    -2.0569  
    6.38000n   -3.4058    -2.2867    -1.8285    -1.5899  
    6.39000n   -3.0276    -1.8629    -1.3715    -1.1228  
    6.40000n   -2.6494    -1.4390  -914.4751m -655.7726m 
    6.41000n   -2.2712    -1.0152  -457.4445m -188.7300m 
    6.42000n   -1.8930  -591.3924m -413.9866u  278.3126m 
    6.43000n   -1.5148  -167.5677m  456.6165m  745.3552m 
    6.44000n   -1.1989   155.2546m  786.2987m    1.0735  
    6.45000n -908.0674m  437.3139m    1.0646     1.3455  
    6.46000n -617.2483m  719.3732m    1.3429     1.6176  
    6.47000n -326.4292m    1.0014     1.6212     1.8897  
    6.48000n  -35.6101m    1.2835     1.8994     2.1617  
    6.49000n  255.2091m    1.5656     2.1777     2.4338  
    6.50000n  546.0282m    1.8476     2.4560     2.7058  
    6.51000n  836.8473m    2.1297     2.7343     2.9779  
    6.52000n    1.1277     2.4117     3.0126     3.2500  
    6.53000n    1.4185     2.6938     3.2909     3.5220  
    6.54000n    1.7093     2.9758     3.5692     3.7941  
    6.55000n    2.0001     3.2579     3.8474     4.0661  
    6.56000n    2.2909     3.5400     4.1257     4.3382  
    6.57000n    2.5818     3.8220     4.4040     4.6102  
    6.58000n    2.8726     4.1041     4.6823     4.8823  
    6.59000n    3.1634     4.3861     4.9606     5.1544  
    6.60000n    3.4542     4.6682     5.2389     5.4264  
    6.61000n    3.7450     4.9503     5.5172     5.6985  
    6.62000n    4.0359     5.2323     5.7955     5.9705  
    6.63000n    4.3267     5.5144     6.0737     6.2426  
    6.64000n    4.6175     5.7964     6.3520     6.5147  
    6.65000n    4.6623     5.8242     6.3693     6.5262  
    6.66000n    4.7023     5.8469     6.3815     6.5327  
    6.67000n    4.7423     5.8697     6.3937     6.5391  
    6.68000n    4.7824     5.8924     6.4059     6.5456  
    6.69000n    4.8224     5.9152     6.4181     6.5520  
    6.70000n    4.8624     5.9380     6.4303     6.5585  
    6.71000n    4.9024     5.9607     6.4425     6.5649  
    6.72000n    4.9424     5.9835     6.4547     6.5714  
    6.73000n    4.9824     6.0062     6.4669     6.5778  
    6.74000n    5.0224     6.0290     6.4791     6.5843  
    6.75000n    5.0625     6.0517     6.4912     6.5908  
    6.76000n    5.1025     6.0745     6.5034     6.5972  
    6.77000n    5.1425     6.0973     6.5156     6.6037  
    6.78000n    5.1825     6.1200     6.5278     6.6101  
    6.79000n    5.2225     6.1428     6.5400     6.6166  
    6.80000n    5.2625     6.1655     6.5522     6.6230  
    6.81000n    5.3025     6.1883     6.5644     6.6295  
    6.82000n    5.3426     6.2110     6.5766     6.6359  
    6.83000n    5.3826     6.2338     6.5888     6.6424  
    6.84000n    5.4226     6.2566     6.6010     6.6489  
    6.85000n    5.4186     6.2301     6.5644     6.6087  
    6.86000n    5.3482     6.1295     6.4544     6.4984  
    6.87000n    5.2778     6.0289     6.3443     6.3880  
    6.88000n    5.2075     5.9284     6.2343     6.2777  
    6.89000n    5.1371     5.8278     6.1243     6.1673  
    6.90000n    5.0667     5.7272     6.0143     6.0570  
    6.91000n    4.9964     5.6266     5.9042     5.9466  
    6.92000n    4.9260     5.5260     5.7942     5.8363  
    6.93000n    4.8557     5.4254     5.6842     5.7259  
    6.94000n    4.7853     5.3249     5.5741     5.6156  
    6.95000n    4.7149     5.2243     5.4641     5.5052  
    6.96000n    4.6446     5.1237     5.3541     5.3949  
    6.97000n    4.5742     5.0231     5.2440     5.2845  
    6.98000n    4.5038     4.9225     5.1340     5.1742  
    6.99000n    4.4335     4.8219     5.0240     5.0638  
    7.00000n    4.3631     4.7213     4.9140     4.9535  
    7.01000n    4.2928     4.6208     4.8039     4.8431  
    7.02000n    4.2224     4.5202     4.6939     4.7328  
    7.03000n    4.1520     4.4196     4.5839     4.6224  
    7.04000n    4.0817     4.3190     4.4738     4.5121  
    7.05000n    4.0113     4.2184     4.3638     4.4017  
    7.06000n    3.9409     4.1178     4.2538     4.2914  
    7.07000n    3.8706     4.0173     4.1437     4.1810  
    7.08000n    3.8254     3.9543     4.0684     4.0997  
    7.09000n    3.7919     3.9088     4.0093     4.0319  
    7.10000n    3.7585     3.8633     3.9502     3.9641  
    7.11000n    3.7250     3.8178     3.8911     3.8964  
    7.12000n    3.6916     3.7723     3.8319     3.8286  
    7.13000n    3.6581     3.7268     3.7728     3.7608  
    7.14000n    3.6247     3.6813     3.7137     3.6930  
    7.15000n    3.5912     3.6358     3.6546     3.6252  
    7.16000n    3.5577     3.5903     3.5954     3.5574  
    7.17000n    3.5243     3.5449     3.5363     3.4896  
    7.18000n    3.4908     3.4994     3.4772     3.4218  
    7.19000n    3.4574     3.4539     3.4180     3.3541  
    7.20000n    3.4239     3.4084     3.3589     3.2863  
    7.21000n    3.3905     3.3629     3.2998     3.2185  
    7.22000n    3.3570     3.3174     3.2407     3.1507  
    7.23000n    3.3236     3.2719     3.1815     3.0829  
    7.24000n    3.2901     3.2264     3.1224     3.0151  
    7.25000n    3.2566     3.1809     3.0633     2.9473  
    7.26000n    3.2232     3.1355     3.0042     2.8795  
    7.27000n    3.1897     3.0900     2.9450     2.8118  
    7.28000n    3.1563     3.0445     2.8859     2.7440  
    7.29000n    3.1228     2.9990     2.8268     2.6762  
    7.30000n    3.0894     2.9535     2.7677     2.6084  
    7.31000n    3.0559     2.9080     2.7085     2.5406  
    7.32000n    3.0225     2.8625     2.6494     2.4728  
    7.33000n    2.9612     2.7998     2.5868     2.4118  
    7.34000n    2.8744     2.7212     2.5209     2.3569  
    7.35000n    2.7876     2.6426     2.4550     2.3021  
    7.36000n    2.7008     2.5641     2.3891     2.2472  
    7.37000n    2.6139     2.4855     2.3232     2.1924  
    7.38000n    2.5271     2.4069     2.2573     2.1375  
    7.39000n    2.4403     2.3283     2.1914     2.0827  
    7.40000n    2.3535     2.2497     2.1255     2.0278  
    7.41000n    2.2667     2.1711     2.0596     1.9730  
    7.42000n    2.1798     2.0926     1.9937     1.9181  
    7.43000n    2.0930     2.0140     1.9279     1.8633  
    7.44000n    2.0062     1.9354     1.8620     1.8084  
    7.45000n    1.9194     1.8568     1.7961     1.7536  
    7.46000n    1.8326     1.7782     1.7302     1.6987  
    7.47000n    1.7457     1.6996     1.6643     1.6439  
    7.48000n    1.6589     1.6210     1.5984     1.5890  
    7.49000n    1.5721     1.5425     1.5325     1.5342  
    7.50000n    1.4853     1.4639     1.4666     1.4793  
    7.51000n    1.3985     1.3853     1.4007     1.4245  
    7.52000n    1.3117     1.3067     1.3348     1.3696  
    7.53000n    1.2248     1.2281     1.2689     1.3148  
    7.54000n    1.1380     1.1495     1.2030     1.2599  
    7.55000n    1.0512     1.0710     1.1371     1.2051  
    7.56000n  964.3758m  992.3805m    1.0713     1.1502  
    7.57000n  877.5570m  913.7968m    1.0054     1.0954  
    7.58000n  791.5042m  834.5063m  937.2289m    1.0372  
    7.59000n  714.1131m  747.2215m  843.7515m  941.3518m 
    7.60000n  636.7221m  659.9368m  750.2742m  845.5222m 
    7.61000n  559.3310m  572.6521m  656.7968m  749.6925m 
    7.62000n  481.9399m  485.3674m  563.3195m  653.8629m 
    7.63000n  404.5489m  398.0826m  469.8421m  558.0333m 
    7.64000n  327.1578m  310.7979m  376.3648m  462.2036m 
    7.65000n  249.7667m  223.5132m  282.8874m  366.3740m 
    7.66000n  172.3757m  136.2285m  189.4101m  270.5444m 
    7.67000n   94.9846m   48.9437m   95.9327m  174.7148m 
    7.68000n   17.5935m  -38.3410m    2.4553m   78.8851m 
    7.69000n  -59.7975m -125.6257m  -91.0220m  -16.9445m 
    7.70000n -137.1886m -212.9104m -184.4994m -112.7741m 
    7.71000n -214.5797m -300.1952m -277.9767m -208.6038m 
    7.72000n -291.9707m -387.4799m -371.4541m -304.4334m 
    7.73000n -369.3618m -474.7646m -464.9314m -400.2630m 
    7.74000n -446.7529m -562.0493m -558.4088m -496.0927m 
    7.75000n -524.1439m -649.3341m -651.8861m -591.9223m 
    7.76000n -601.5350m -736.6188m -745.3635m -687.7519m 
    7.77000n -678.9261m -823.9035m -838.8409m -783.5816m 
    7.78000n -756.3172m -911.1882m -932.3182m -879.4112m 
    7.79000n -833.7082m -998.4729m   -1.0258  -975.2408m 
    7.80000n -911.0993m   -1.0858    -1.1193    -1.0711  
    7.81000n -988.4904m   -1.1730    -1.2128    -1.1669  
    7.82000n   -1.0659    -1.2603    -1.3062    -1.2627  
    7.83000n   -1.1433    -1.3476    -1.3997    -1.3586  
    7.84000n   -1.2207    -1.4349    -1.4932    -1.4544  
    7.85000n   -1.2981    -1.5222    -1.5867    -1.5502  
    7.86000n   -1.3754    -1.6095    -1.6801    -1.6460  
    7.87000n   -1.3921    -1.6251    -1.6982    -1.6686  
    7.88000n   -1.4069    -1.6386    -1.7139    -1.6890  
    7.89000n   -1.4217    -1.6520    -1.7297    -1.7094  
    7.90000n   -1.4365    -1.6655    -1.7454    -1.7298  
    7.91000n   -1.4513    -1.6790    -1.7612    -1.7501  
    7.92000n   -1.4661    -1.6924    -1.7769    -1.7705  
    7.93000n   -1.4808    -1.7059    -1.7927    -1.7909  
    7.94000n   -1.4956    -1.7193    -1.8085    -1.8112  
    7.95000n   -1.5104    -1.7328    -1.8242    -1.8316  
    7.96000n   -1.5252    -1.7463    -1.8400    -1.8520  
    7.97000n   -1.5400    -1.7597    -1.8557    -1.8724  
    7.98000n   -1.5548    -1.7732    -1.8715    -1.8927  
    7.99000n   -1.5696    -1.7866    -1.8872    -1.9131  
    8.00000n   -1.5844    -1.8001    -1.9030    -1.9335  
    8.01000n   -1.5992    -1.8136    -1.9187    -1.9538  
    8.02000n   -1.6140    -1.8270    -1.9345    -1.9742  
    8.03000n   -1.6288    -1.8405    -1.9502    -1.9946  
    8.04000n   -1.6436    -1.8540    -1.9660    -2.0150  
    8.05000n   -1.6584    -1.8674    -1.9817    -2.0353  
    8.06000n   -1.6732    -1.8809    -1.9975    -2.0557  
    8.07000n   -1.6880    -1.8943    -2.0132    -2.0761  
    8.08000n   -1.7028    -1.9078    -2.0290    -2.0964  
    8.09000n   -1.7175    -1.9213    -2.0448    -2.1168  
    8.10000n   -1.7323    -1.9347    -2.0605    -2.1372  
    8.11000n   -1.7471    -1.9482    -2.0763    -2.1575  
    8.12000n   -1.7619    -1.9617    -2.0920    -2.1779  
    8.13000n   -1.7767    -1.9751    -2.1078    -2.1983  
    8.14000n   -1.7915    -1.9886    -2.1235    -2.2187  
    8.15000n   -1.8063    -2.0020    -2.1393    -2.2390  
    8.16000n   -1.8211    -2.0155    -2.1550    -2.2594  
    8.17000n   -1.8028    -1.9948    -2.1323    -2.2350  
    8.18000n   -1.7744    -1.9638    -2.0978    -2.1970  
    8.19000n   -1.7460    -1.9327    -2.0634    -2.1590  
    8.20000n   -1.7177    -1.9016    -2.0290    -2.1209  
    8.21000n   -1.6893    -1.8706    -1.9945    -2.0829  
    8.22000n   -1.6609    -1.8395    -1.9601    -2.0449  
    8.23000n   -1.6325    -1.8084    -1.9256    -2.0069  
    8.24000n   -1.6041    -1.7774    -1.8912    -1.9689  
    8.25000n   -1.5758    -1.7463    -1.8568    -1.9309  
    8.26000n   -1.5474    -1.7153    -1.8223    -1.8928  
    8.27000n   -1.5190    -1.6842    -1.7879    -1.8548  
    8.28000n   -1.4906    -1.6531    -1.7535    -1.8168  
    8.29000n   -1.4622    -1.6221    -1.7190    -1.7788  
    8.30000n   -1.4339    -1.5910    -1.6846    -1.7408  
    8.31000n   -1.4055    -1.5600    -1.6501    -1.7028  
    8.32000n   -1.3771    -1.5289    -1.6157    -1.6647  
    8.33000n   -1.3487    -1.4978    -1.5813    -1.6267  
    8.34000n   -1.3204    -1.4668    -1.5468    -1.5887  
    8.35000n   -1.2920    -1.4357    -1.5124    -1.5507  
    8.36000n   -1.2636    -1.4047    -1.4779    -1.5127  
    8.37000n   -1.2352    -1.3736    -1.4435    -1.4747  
    8.38000n   -1.2068    -1.3425    -1.4091    -1.4366  
    8.39000n   -1.1785    -1.3115    -1.3746    -1.3986  
    8.40000n   -1.1501    -1.2804    -1.3402    -1.3606  
    8.41000n   -1.1217    -1.2494    -1.3057    -1.3226  
    8.42000n   -1.0933    -1.2183    -1.2713    -1.2846  
    8.43000n   -1.0650    -1.1872    -1.2369    -1.2466  
    8.44000n   -1.0366    -1.1562    -1.2024    -1.2085  
    8.45000n   -1.0082    -1.1251    -1.1680    -1.1705  
    8.46000n -979.8246m   -1.0941    -1.1335    -1.1325  
    8.47000n -951.4467m   -1.0630    -1.0991    -1.0945  
    8.48000n -922.0735m   -1.0287    -1.0633    -1.0586  
    8.49000n -891.8911m -991.7438m   -1.0263    -1.0245  
    8.50000n -861.7088m -954.7988m -989.2869m -990.3270m 
    8.51000n -831.5265m -917.8537m -952.2985m -956.1811m 
    8.52000n -801.3441m -880.9086m -915.3102m -922.0352m 
    8.53000n -771.1618m -843.9636m -878.3218m -887.8893m 
    8.54000n -740.9794m -807.0185m -841.3334m -853.7434m 
    8.55000n -710.7971m -770.0734m -804.3450m -819.5974m 
    8.56000n -680.6148m -733.1284m -767.3566m -785.4515m 
[...]
   26.92000n   89.2226m   63.6095m    5.2710m -116.4977m 
   26.93000n  116.2679m   90.9178m   31.5675m  -91.2404m 
   26.94000n  143.3132m  118.2260m   57.8639m  -65.9830m 
   26.95000n  170.3585m  145.5343m   84.1604m  -40.7257m 
   26.96000n  197.4037m  172.8426m  110.4569m  -15.4684m 
   26.97000n  224.4490m  200.1509m  136.7533m    9.7889m 
   26.98000n  251.4943m  227.4592m  163.0498m   35.0463m 
   26.99000n  278.5395m  254.7675m  189.3463m   60.3036m 
   27.00000n  304.4841m  281.0283m  214.7778m   84.9742m 
   27.01000n  314.0465m  291.6993m  227.3370m  100.9133m 
   27.02000n  323.6090m  302.3703m  239.8961m  116.8524m 
   27.03000n  333.1714m  313.0414m  252.4553m  132.7915m 
   27.04000n  342.7339m  323.7124m  265.0145m  148.7306m 
   27.05000n  352.2963m  334.3835m  277.5736m  164.6697m 
   27.06000n  361.8588m  345.0545m  290.1328m  180.6088m 
   27.07000n  371.4213m  355.7255m  302.6920m  196.5479m 
   27.08000n  380.9837m  366.3966m  315.2511m  212.4869m 
   27.09000n  390.5462m  377.0676m  327.8103m  228.4260m 
   27.10000n  400.1086m  387.7387m  340.3695m  244.3651m 
   27.11000n  409.6711m  398.4097m  352.9286m  260.3042m 
   27.12000n  419.2335m  409.0807m  365.4878m  276.2433m 
   27.13000n  428.7960m  419.7518m  378.0470m  292.1824m 
   27.14000n  438.3584m  430.4228m  390.6061m  308.1215m 
   27.15000n  447.9209m  441.0938m  403.1653m  324.0606m 
   27.16000n  457.4833m  451.7649m  415.7245m  339.9996m 
   27.17000n  467.0458m  462.4359m  428.2836m  355.9387m 
   27.18000n  476.6083m  473.1070m  440.8428m  371.8778m 
   27.19000n  486.1707m  483.7780m  453.4020m  387.8169m 
   27.20000n  495.7332m  494.4490m  465.9611m  403.7560m 
   27.21000n  505.2956m  505.1201m  478.5203m  419.6951m 
   27.22000n  514.8581m  515.7911m  491.0795m  435.6342m 
   27.23000n  524.4205m  526.4622m  503.6386m  451.5733m 
   27.24000n  533.9830m  537.1332m  516.1978m  467.5124m 
   27.25000n  543.5454m  547.8042m  528.7569m  483.4514m 
   27.26000n  543.4957m  547.9733m  529.9985m  486.8268m 
   27.27000n  542.9898m  547.6440m  530.7030m  489.6059m 
   27.28000n  542.4838m  547.3146m  531.4074m  492.3850m 
   27.29000n  541.9779m  546.9853m  532.1118m  495.1640m 
   27.30000n  541.4720m  546.6559m  532.8162m  497.9431m 
   27.31000n  540.9660m  546.3265m  533.5206m  500.7222m 
   27.32000n  540.4601m  545.9972m  534.2250m  503.5013m 
   27.33000n  539.9541m  545.6678m  534.9294m  506.2803m 
   27.34000n  539.4482m  545.3385m  535.6339m  509.0594m 
   27.35000n  538.9422m  545.0091m  536.3383m  511.8385m 
   27.36000n  538.4363m  544.6797m  537.0427m  514.6175m 
   27.37000n  537.9303m  544.3504m  537.7471m  517.3966m 
   27.38000n  537.4244m  544.0210m  538.4515m  520.1757m 
   27.39000n  536.9184m  543.6917m  539.1559m  522.9547m 
   27.40000n  536.4125m  543.3623m  539.8603m  525.7338m 
   27.41000n  535.9065m  543.0329m  540.5648m  528.5129m 
   27.42000n  535.4006m  542.7036m  541.2692m  531.2919m 
   27.43000n  534.8947m  542.3742m  541.9736m  534.0710m 
   27.44000n  534.3887m  542.0449m  542.6780m  536.8501m 
   27.45000n  533.8828m  541.7155m  543.3824m  539.6292m 
   27.46000n  533.3768m  541.3861m  544.0868m  542.4082m 
   27.47000n  532.8709m  541.0568m  544.7912m  545.1873m 
   27.48000n  532.3649m  540.7274m  545.4957m  547.9664m 
   27.49000n  531.8590m  540.3981m  546.2001m  550.7454m 
   27.50000n  531.3530m  540.0687m  546.9045m  553.5245m 
   27.51000n  530.4080m  539.2771m  547.0809m  555.6573m 
   27.52000n  521.0269m  529.6033m  537.1126m  545.3738m 
   27.53000n  511.6458m  519.9295m  527.1443m  535.0902m 
   27.54000n  502.2647m  510.2558m  517.1760m  524.8067m 
   27.55000n  492.8835m  500.5820m  507.2077m  514.5232m 
   27.56000n  483.5024m  490.9083m  497.2394m  504.2396m 
   27.57000n  474.1213m  481.2345m  487.2711m  493.9561m 
   27.58000n  464.7402m  471.5608m  477.3028m  483.6725m 
   27.59000n  455.3591m  461.8870m  467.3345m  473.3890m 
   27.60000n  445.9780m  452.2133m  457.3662m  463.1055m 
   27.61000n  436.5968m  442.5395m  447.3979m  452.8219m 
   27.62000n  427.2157m  432.8658m  437.4296m  442.5384m 
   27.63000n  417.8346m  423.1920m  427.4613m  432.2548m 
   27.64000n  408.4535m  413.5183m  417.4930m  421.9713m 
   27.65000n  399.0724m  403.8445m  407.5247m  411.6878m 
   27.66000n  389.6913m  394.1708m  397.5564m  401.4042m 
   27.67000n  380.3102m  384.4970m  387.5881m  391.1207m 
   27.68000n  370.9290m  374.8232m  377.6198m  380.8371m 
   27.69000n  361.5479m  365.1495m  367.6515m  370.5536m 
   27.70000n  352.1668m  355.4757m  357.6832m  360.2701m 
   27.71000n  342.7857m  345.8020m  347.7149m  349.9865m 
   27.72000n  333.4046m  336.1282m  337.7466m  339.7030m 
   27.73000n  324.0235m  326.4545m  327.7783m  329.4194m 
   27.74000n  314.6423m  316.7807m  317.8100m  319.1359m 
   27.75000n  305.2612m  307.1070m  307.8417m  308.8524m 
   27.76000n  295.8801m  297.4332m  297.8734m  298.5688m 
   27.77000n  286.4990m  287.7595m  287.9051m  288.2853m 
   27.78000n  277.1179m  278.0857m  277.9368m  278.0017m 
   27.79000n  267.7368m  268.4120m  267.9685m  267.7182m 
   27.80000n  258.3556m  258.7382m  258.0002m  257.4347m 
   27.81000n  248.9745m  249.0644m  248.0319m  247.1511m 
   27.82000n  239.5212m  239.3235m  238.0008m  236.8403m 
   27.83000n  229.7727m  229.3082m  227.7127m  226.4181m 
   27.84000n  220.0241m  219.2928m  217.4246m  215.9958m 
   27.85000n  210.2756m  209.2774m  207.1365m  205.5736m 
   27.86000n  200.5271m  199.2620m  196.8484m  195.1513m 
   27.87000n  190.7785m  189.2466m  186.5603m  184.7291m 
   27.88000n  181.0300m  179.2312m  176.2722m  174.3068m 
   27.89000n  171.2815m  169.2159m  165.9842m  163.8846m 
   27.90000n  161.5330m  159.2005m  155.6961m  153.4623m 
   27.91000n  151.7844m  149.1851m  145.4080m  143.0401m 
   27.92000n  142.0359m  139.1697m  135.1199m  132.6179m 
   27.93000n  132.2874m  129.1543m  124.8318m  122.1956m 
   27.94000n  122.5389m  119.1389m  114.5437m  111.7734m 
   27.95000n  112.7903m  109.1236m  104.2556m  101.3511m 
   27.96000n  103.0418m   99.1082m   93.9676m   90.9289m 
   27.97000n   93.2933m   89.0928m   83.6795m   80.5066m 
   27.98000n   83.5448m   79.0774m   73.3914m   70.0844m 
   27.99000n   73.7962m   69.0620m   63.1033m   59.6621m 
   28.00000n   64.0477m   59.0466m   52.8152m   49.2399m 
   28.01000n   54.2992m   49.0313m   42.5271m   38.8177m 
   28.02000n   44.5506m   39.0159m   32.2390m   28.3954m 
   28.03000n   34.8021m   29.0005m   21.9510m   17.9732m 
   28.04000n   25.0536m   18.9851m   11.6629m    7.5509m 
   28.05000n   15.3051m    8.9697m    1.3748m   -2.8713m 
   28.06000n    5.5565m   -1.0457m   -8.9133m  -13.2936m 
   28.07000n   -4.1920m  -11.0610m  -19.2014m  -23.7158m 
   28.08000n  -13.9405m  -21.0764m  -29.4895m  -34.1381m 
   28.09000n  -23.6890m  -31.0918m  -39.7776m  -44.5603m 
   28.10000n  -33.4376m  -41.1072m  -50.0657m  -54.9825m 
   28.11000n  -39.1829m  -46.9438m  -55.8533m  -60.4178m 
   28.12000n  -41.9250m  -49.6455m  -58.2647m  -62.1120m 
   28.13000n  -44.6672m  -52.3472m  -60.6762m  -63.8061m 
   28.14000n  -47.4093m  -55.0489m  -63.0877m  -65.5003m 
   28.15000n  -50.1515m  -57.7506m  -65.4991m  -67.1944m 
   28.16000n  -52.8936m  -60.4524m  -67.9106m  -68.8886m 
   28.17000n  -55.6358m  -63.1541m  -70.3220m  -70.5827m 
   28.18000n  -58.3780m  -65.8558m  -72.7335m  -72.2769m 
   28.19000n  -61.1201m  -68.5575m  -75.1450m  -73.9710m 
   28.20000n  -63.8623m  -71.2592m  -77.5564m  -75.6652m 
   28.21000n  -66.6044m  -73.9610m  -79.9679m  -77.3594m 
   28.22000n  -69.3466m  -76.6627m  -82.3794m  -79.0535m 
   28.23000n  -72.0887m  -79.3644m  -84.7908m  -80.7477m 
   28.24000n  -74.8309m  -82.0661m  -87.2023m  -82.4418m 
   28.25000n  -77.5731m  -84.7679m  -89.6138m  -84.1360m 
   28.26000n  -80.3152m  -87.4696m  -92.0252m  -85.8301m 
   28.27000n  -83.0574m  -90.1713m  -94.4367m  -87.5243m 
   28.28000n  -85.7995m  -92.8730m  -96.8481m  -89.2184m 
   28.29000n  -88.5417m  -95.5747m  -99.2596m  -90.9126m 
   28.30000n  -91.2839m  -98.2765m -101.6711m  -92.6067m 
   28.31000n  -94.0260m -100.9782m -104.0825m  -94.3009m 
   28.32000n  -96.7682m -103.6799m -106.4940m  -95.9950m 
   28.33000n  -99.5103m -106.3816m -108.9055m  -97.6892m 
   28.34000n -102.2525m -109.0834m -111.3169m  -99.3833m 
   28.35000n -104.9946m -111.7851m -113.7284m -101.0775m 
   28.36000n -107.7368m -114.4868m -116.1399m -102.7717m 
   28.37000n -110.4790m -117.1885m -118.5513m -104.4658m 
   28.38000n -113.2211m -119.8902m -120.9628m -106.1600m 
   28.39000n -115.9633m -122.5920m -123.3742m -107.8541m 
   28.40000n -118.7054m -125.2937m -125.7857m -109.5483m 
   28.41000n -121.4476m -127.9954m -128.1972m -111.2424m 
   28.42000n -124.1897m -130.6971m -130.6086m -112.9366m 
   28.43000n -126.9319m -133.3988m -133.0201m -114.6307m 
   28.44000n -129.6741m -136.1006m -135.4316m -116.3249m 
   28.45000n -132.4162m -138.8023m -137.8430m -118.0190m 
   28.46000n -135.1584m -141.5040m -140.2545m -119.7132m 
   28.47000n -137.6379m -143.8925m -142.3352m -121.1683m 
   28.48000n -137.9166m -143.6554m -141.6441m -120.6194m 
   28.49000n -138.1953m -143.4184m -140.9529m -120.0705m 
   28.50000n -138.4739m -143.1813m -140.2618m -119.5217m 
   28.51000n -138.7526m -142.9443m -139.5706m -118.9728m 
   28.52000n -139.0312m -142.7072m -138.8795m -118.4239m 
   28.53000n -139.3099m -142.4702m -138.1883m -117.8751m 
   28.54000n -139.5886m -142.2331m -137.4972m -117.3262m 
   28.55000n -139.8672m -141.9961m -136.8061m -116.7774m 
   28.56000n -140.1459m -141.7590m -136.1149m -116.2285m 
   28.57000n -140.4245m -141.5220m -135.4238m -115.6796m 
   28.58000n -140.7032m -141.2849m -134.7326m -115.1308m 
   28.59000n -140.9819m -141.0479m -134.0415m -114.5819m 
   28.60000n -141.2605m -140.8108m -133.3503m -114.0330m 
   28.61000n -141.5392m -140.5738m -132.6592m -113.4842m 
   28.62000n -141.8178m -140.3367m -131.9680m -112.9353m 
   28.63000n -142.0965m -140.0997m -131.2769m -112.3864m 
   28.64000n -142.3752m -139.8626m -130.5857m -111.8376m 
   28.65000n -142.6538m -139.6256m -129.8946m -111.2887m 
   28.66000n -142.9325m -139.3885m -129.2034m -110.7399m 
   28.67000n -143.2112m -139.1515m -128.5123m -110.1910m 
   28.68000n -143.4898m -138.9144m -127.8211m -109.6421m 
   28.69000n -143.7685m -138.6774m -127.1300m -109.0933m 
   28.70000n -144.0471m -138.4403m -126.4388m -108.5444m 
   28.71000n -144.3258m -138.2033m -125.7477m -107.9955m 
   28.72000n -144.6045m -137.9662m -125.0565m -107.4467m 
   28.73000n -144.8831m -137.7292m -124.3654m -106.8978m 
   28.74000n -145.1618m -137.4921m -123.6742m -106.3489m 
   28.75000n -145.4404m -137.2551m -122.9831m -105.8001m 
   28.76000n -145.7191m -137.0180m -122.2919m -105.2512m 
   28.77000n -145.9978m -136.7810m -121.6008m -104.7024m 
   28.78000n -146.2764m -136.5439m -120.9096m -104.1535m 
   28.79000n -146.5551m -136.3069m -120.2185m -103.6046m 
   28.80000n -146.8337m -136.0698m -119.5274m -103.0558m 
   28.81000n -147.1124m -135.8328m -118.8362m -102.5069m 
   28.82000n -147.3911m -135.5957m -118.1451m -101.9580m 
   28.83000n -146.7906m -134.7865m -117.2785m -101.4190m 
   28.84000n -145.1320m -133.2887m -116.2007m -100.8918m 
   28.85000n -143.4734m -131.7909m -115.1230m -100.3645m 
   28.86000n -141.8147m -130.2931m -114.0453m  -99.8373m 
   28.87000n -140.1561m -128.7953m -112.9675m  -99.3100m 
   28.88000n -138.4975m -127.2975m -111.8898m  -98.7828m 
   28.89000n -136.8389m -125.7996m -110.8121m  -98.2556m 
   28.90000n -135.1803m -124.3018m -109.7344m  -97.7283m 
   28.91000n -133.5217m -122.8040m -108.6566m  -97.2011m 
   28.92000n -131.8631m -121.3062m -107.5789m  -96.6739m 
   28.93000n -130.2045m -119.8084m -106.5012m  -96.1466m 
   28.94000n -128.5458m -118.3106m -105.4234m  -95.6194m 
   28.95000n -126.8872m -116.8128m -104.3457m  -95.0921m 
   28.96000n -125.2286m -115.3149m -103.2680m  -94.5649m 
   28.97000n -123.5700m -113.8171m -102.1902m  -94.0377m 
   28.98000n -121.9114m -112.3193m -101.1125m  -93.5104m 
   28.99000n -120.2528m -110.8215m -100.0348m  -92.9832m 
   29.00000n -118.5942m -109.3237m  -98.9570m  -92.4560m 
   29.01000n -116.9356m -107.8259m  -97.8793m  -91.9287m 
   29.02000n -115.2769m -106.3281m  -96.8016m  -91.4015m 
   29.03000n -113.6183m -104.8302m  -95.7238m  -90.8743m 
   29.04000n -111.9597m -103.3324m  -94.6461m  -90.3470m 
   29.05000n -110.3011m -101.8346m  -93.5684m  -89.8198m 
   29.06000n -108.6425m -100.3368m  -92.4907m  -89.2925m 
   29.07000n -106.9839m  -98.8390m  -91.4129m  -88.7653m 
   29.08000n -105.3253m  -97.3412m  -90.3352m  -88.2381m 
   29.09000n -103.6667m  -95.8434m  -89.2575m  -87.7108m 
   29.10000n -102.0080m  -94.3455m  -88.1797m  -87.1836m 
   29.11000n -100.3494m  -92.8477m  -87.1020m  -86.6564m 
   29.12000n  -98.6908m  -91.3499m  -86.0243m  -86.1291m 
   29.13000n  -97.0322m  -89.8521m  -84.9465m  -85.6019m 
   29.14000n  -95.3736m  -88.3543m  -83.8688m  -85.0746m 
   29.15000n  -93.7150m  -86.8565m  -82.7911m  -84.5474m 
   29.16000n  -92.0564m  -85.3587m  -81.7133m  -84.0202m 
   29.17000n  -90.3978m  -83.8608m  -80.6356m  -83.4929m 
   29.18000n  -88.7391m  -82.3630m  -79.5579m  -82.9657m 
   29.19000n  -87.0805m  -80.8652m  -78.4801m  -82.4385m 
   29.20000n  -85.4219m  -79.3674m  -77.4024m  -81.9112m 
   29.21000n  -83.7633m  -77.8696m  -76.3247m  -81.3840m 
   29.22000n  -81.1764m  -75.5149m  -74.3431m  -79.7977m 
   29.23000n  -76.6020m  -71.3257m  -70.4264m  -75.9440m 
   29.24000n  -72.0275m  -67.1365m  -66.5097m  -72.0903m 
   29.25000n  -67.4531m  -62.9472m  -62.5930m  -68.2366m 
   29.26000n  -62.8787m  -58.7580m  -58.6763m  -64.3828m 
   29.27000n  -58.3042m  -54.5688m  -54.7596m  -60.5291m 
   29.28000n  -53.7298m  -50.3796m  -50.8429m  -56.6754m 
   29.29000n  -49.1554m  -46.1903m  -46.9262m  -52.8217m 
   29.30000n  -44.5809m  -42.0011m  -43.0095m  -48.9680m 
   29.31000n  -40.0065m  -37.8119m  -39.0928m  -45.1143m 
   29.32000n  -35.4321m  -33.6227m  -35.1761m  -41.2606m 
   29.33000n  -30.8576m  -29.4334m  -31.2594m  -37.4068m 
   29.34000n  -26.2832m  -25.2442m  -27.3427m  -33.5531m 
   29.35000n  -21.7088m  -21.0550m  -23.4260m  -29.6994m 
   29.36000n  -17.1343m  -16.8658m  -19.5093m  -25.8457m 
   29.37000n  -12.5599m  -12.6765m  -15.5926m  -21.9920m 
   29.38000n   -7.9855m   -8.4873m  -11.6759m  -18.1383m 
   29.39000n   -3.4110m   -4.2981m   -7.7592m  -14.2846m 
   29.40000n    1.1634m -108.8545u   -3.8425m  -10.4308m 
   29.41000n    5.7378m    4.0804m   74.2337u   -6.5771m 
   29.42000n   10.3122m    8.2696m    3.9909m   -2.7234m 
   29.43000n   14.8867m   12.4588m    7.9076m    1.1303m 
   29.44000n   19.4611m   16.6480m   11.8243m    4.9840m 
   29.45000n   24.0355m   20.8373m   15.7410m    8.8377m 
   29.46000n   28.6100m   25.0265m   19.6577m   12.6915m 
   29.47000n   33.1844m   29.2157m   23.5744m   16.5452m 
   29.48000n   37.7588m   33.4049m   27.4911m   20.3989m 
   29.49000n   42.3333m   37.5942m   31.4079m   24.2526m 
   29.50000n   46.9077m   41.7834m   35.3246m   28.1063m 
   29.51000n   51.4821m   45.9726m   39.2413m   31.9600m 
   29.52000n   56.0566m   50.1619m   43.1580m   35.8137m 
   29.53000n   60.6310m   54.3511m   47.0747m   39.6675m 
   29.54000n   65.2054m   58.5403m   50.9914m   43.5212m 
   29.55000n   69.7799m   62.7295m   54.9081m   47.3749m 
   29.56000n   74.3543m   66.9188m   58.8248m   51.2286m 
   29.57000n   78.9287m   71.1080m   62.7415m   55.0823m 
   29.58000n   83.5032m   75.2972m   66.6582m   58.9360m 
   29.59000n   84.1674m   76.0580m   67.5388m   59.8914m 
   29.60000n   83.5749m   75.7167m   67.4436m   59.9151m 
   29.61000n   82.9823m   75.3754m   67.3484m   59.9389m 
   29.62000n   82.3897m   75.0341m   67.2532m   59.9626m 
   29.63000n   81.7971m   74.6928m   67.1580m   59.9863m 
   29.64000n   81.2045m   74.3515m   67.0627m   60.0101m 
   29.65000n   80.6119m   74.0102m   66.9675m   60.0338m 
   29.66000n   80.0193m   73.6690m   66.8723m   60.0575m 
   29.67000n   79.4268m   73.3277m   66.7771m   60.0813m 
   29.68000n   78.8342m   72.9864m   66.6819m   60.1050m 
   29.69000n   78.2416m   72.6451m   66.5866m   60.1287m 
   29.70000n   77.6490m   72.3038m   66.4914m   60.1524m 
   29.71000n   77.0564m   71.9625m   66.3962m   60.1762m 
   29.72000n   76.4638m   71.6212m   66.3010m   60.1999m 
   29.73000n   75.8713m   71.2799m   66.2058m   60.2236m 
   29.74000n   75.2787m   70.9387m   66.1105m   60.2474m 
   29.75000n   74.6861m   70.5974m   66.0153m   60.2711m 
   29.76000n   74.0935m   70.2561m   65.9201m   60.2948m 
   29.77000n   73.5009m   69.9148m   65.8249m   60.3186m 
   29.78000n   72.9083m   69.5735m   65.7297m   60.3423m 
   29.79000n   72.3157m   69.2322m   65.6344m   60.3660m 
   29.80000n   71.7232m   68.8909m   65.5392m   60.3898m 
   29.81000n   71.1306m   68.5497m   65.4440m   60.4135m 
   29.82000n   70.5380m   68.2084m   65.3488m   60.4372m 
   29.83000n   69.9454m   67.8671m   65.2536m   60.4610m 
   29.84000n   69.3528m   67.5258m   65.1583m   60.4847m 
   29.85000n   68.7602m   67.1845m   65.0631m   60.5084m 
   29.86000n   68.1676m   66.8432m   64.9679m   60.5321m 
   29.87000n   67.5751m   66.5019m   64.8727m   60.5559m 
   29.88000n   66.9825m   66.1606m   64.7775m   60.5796m 
   29.89000n   66.3899m   65.8194m   64.6822m   60.6033m 
   29.90000n   65.7973m   65.4781m   64.5870m   60.6271m 
   29.91000n   65.2047m   65.1368m   64.4918m   60.6508m 
   29.92000n   64.6121m   64.7955m   64.3966m   60.6745m 
   29.93000n   64.0195m   64.4542m   64.3014m   60.6983m 
   29.94000n   63.4270m   64.1129m   64.2061m   60.7220m 
   29.95000n   62.8344m   63.7716m   64.1109m   60.7457m 
   29.96000n   62.2418m   63.4304m   64.0157m   60.7695m 
   29.97000n   61.6492m   63.0891m   63.9205m   60.7932m 
   29.98000n   61.0566m   62.7478m   63.8253m   60.8169m 
   29.99000n   60.4640m   62.4065m   63.7300m   60.8407m 
   30.00000n   59.8715m   62.0652m   63.6348m   60.8644m 
y

          ***** job concluded
 ******  
 *a bus interconnect circuit with 34 bus line 16 segment.

 ****** job statistics summary tnom=  25.000 temp=  25.000 ******

  ******  HSPICE Threads Information  ******

  Command Line Threads Count :     1
  Available CPU Count        :     8
  Actual Threads Count       :     1


  ******  Circuit Statistics  ******
  # nodes       =    1123 # elements   =   19676
  # resistors   =     579 # capacitors =    9569 # inductors   =     544
  # mutual_inds =    8976 # vccs       =       0 # vcvs        =       0
  # cccs        =       0 # ccvs       =       0 # volt_srcs   =       0
  # curr_srcs   =       8 # diodes     =       0 # bjts        =       0
  # jfets       =       0 # mosfets    =       0 # U elements  =       0
  # T elements  =       0 # W elements =       0 # B elements  =       0
  # S elements  =       0 # P elements =       0 # va device   =       0
  # vector_srcs =       0 # N elements =       0


  ******  Runtime Statistics (seconds)  ******

  analysis           time    # points   tot. iter  conv.iter
  op point           0.54           1           1
  transient          1.91        3001         363         135 rev=         5
  readin             1.12
  errchk             0.08
  setup              0.24
  output             0.00


           peak memory used        111.87 megabytes
           total cpu time            4.80 seconds
           total elapsed time        5.92 seconds
           job started at     18:17:52 12/06/2022
           job ended   at     18:17:57 12/06/2022
           job total runtime         5.92 seconds


  lic: Release hspice token(s) 
 lic: total license checkout elapse time:        1.08(s)
