 ****** HSPICE -- P-2019.06-SP1-1 win64 (Sep 27 2019) ******                    
  Copyright (c) 1986 - 2022 by Synopsys, Inc. All Rights Reserved.              
  This software and the associated documentation are proprietary
  to Synopsys, Inc. This software may only be used in accordance
  with the terms and conditions of a written license agreement with
  Synopsys, Inc. All other use, reproduction, or distribution of
  this software is strictly prohibited.
  Input File: bus32seg16.sp                                                     
  Command line options: C:\synopsys\Hspice_P-2019.06-SP1-1\WIN64\hspice.com -i bus32seg16.sp -o F:\Benchmark\bus32seg16.lis
  Start time: Tue Dec  6 18:12:37 2022
  lic:  
  lic: FLEXlm: SDK_12.3 
  lic: USER:   44919                HOSTNAME: CZJ 
  lic: HOSTID: "000000000000"       PID:      19564 
  lic: Using FLEXlm license file: 
  lic: 27000@CZJ 
  lic: Checkout 1 hspice 
  lic: License/Maintenance for hspice will expire on 30-dec-2030/2030.12 
  lic: 1(in_use)/99(total) FLOATING license(s) on SERVER 27000@CZJ 
  lic:   
1****** HSPICE -- P-2019.06-SP1-1 win64 (Sep 27 2019) ******                    
 ******  
 *a bus interconnect circuit with 34 bus line 16 segment.

 ****** circuit name directory
 circuit number to circuit name directory
   number circuitname                     definition         multiplier
        0 main circuit
        1 x1.                             intercon           1.00 
  **info** (bus32seg16.sp:36) DC voltage reset to initial transient source value in source 0:iin1. new dc=0.0000D+00
  **warning** For .option genk=1, 0 implicit mutual inductors are generated!

             
 Summary of Linear Res Distribution Info
 -----------------------------------------------------
 |Range                        |Total     |Percent(%)|
 |-----------------------------+----------+----------|
 |1.000000e-01  ~  1.000000e+00|3         |0.5181    |
 |1.000000e+00  ~  1.000000e+03|576       |99.4819   |
 -----------------------------------------------------
              
             
 Summary of Linear Cap Distribution Info
 -----------------------------------------------------
 |Range                        |Total     |Percent(%)|
 |-----------------------------+----------+----------|
 |1.000000e-15  ~  1.000000e-14|117       |1.2227    |
 |1.000000e-14  ~  1.000000e-13|9420      |98.4429   |
 |1.000000e-13  ~  1.000000e-12|32        |0.3344    |
 -----------------------------------------------------
              
             
 Summary of Detailed RC Type Statistics
 -------------------------
 |Element Type|Number    |
 |------------+----------|
 |Constant Res|579       |
 |            |          |
 |Constant Cap|9569      |
 -------------------------
              
  
      
 *****************************************************************
 ******  option summary
 ******
 runlvl  = 3         bypass  = 2.0000    
 **info** dc convergence successful at Newton-Raphson method 
 ******  
 *a bus interconnect circuit with 34 bus line 16 segment.

 ****** operating point information tnom=  25.000 temp=  25.000 ******
 ****** operating point status is voltage   simulation time is     0.     
    node    =voltage      node    =voltage      node    =voltage

 +0:tdn10a1 =   0.      0:tdn10a9 =   0.      0:tdn11a1 =   0.     
 +0:tdn11a9 =   0.      0:tdn12a1 =   0.      0:tdn12a9 =   0.     
 +0:tdn13a1 =   0.      0:tdn13a9 =   0.      0:tdn14a1 =   0.     
 +0:tdn14a9 =   0.      0:tdn15a1 =   0.      0:tdn15a9 =   0.     
 +0:tdn16a1 =   0.      0:tdn16a9 =   0.      0:tdn17a1 =   0.     
 +0:tdn17a9 =   0.      0:tdn18a1 =   0.      0:tdn18a9 =   0.     
 +0:tdn19a1 =   0.      0:tdn19a9 =   0.      0:tdn1a1  =   0.     
 +0:tdn1a9  =   0.      0:tdn20a1 =   0.      0:tdn20a9 =   0.     
 +0:tdn21a1 =   0.      0:tdn21a9 =   0.      0:tdn22a1 =   0.     
 +0:tdn22a9 =   0.      0:tdn23a1 =   0.      0:tdn23a9 =   0.     
 +0:tdn24a1 =   0.      0:tdn24a9 =   0.      0:tdn25a1 =   0.     
 +0:tdn25a9 =   0.      0:tdn26a1 =   0.      0:tdn26a9 =   0.     
 +0:tdn27a1 =   0.      0:tdn27a9 =   0.      0:tdn28a1 =   0.     
 +0:tdn28a9 =   0.      0:tdn29a1 =   0.      0:tdn29a9 =   0.     
 +0:tdn2a1  =   0.      0:tdn2a9  =   0.      0:tdn30a1 =   0.     
 +0:tdn30a9 =   0.      0:tdn31a1 =   0.      0:tdn31a9 =   0.     
 +0:tdn32a1 =   0.      0:tdn32a9 =   0.      0:tdn3a1  =   0.     
 +0:tdn3a9  =   0.      0:tdn4a1  =   0.      0:tdn4a9  =   0.     
 +0:tdn5a1  =   0.      0:tdn5a9  =   0.      0:tdn6a1  =   0.     
 +0:tdn6a9  =   0.      0:tdn7a1  =   0.      0:tdn7a9  =   0.     
 +0:tdn8a1  =   0.      0:tdn8a9  =   0.      0:tdn9a1  =   0.     
 +0:tdn9a9  =   0.      0:tdnga1  =   0.      0:tdnga9  =   0.     
 +0:tdnva1  =   0.      0:tdnva9  =   0.      1:tdn10a10=   0.     
 +1:tdn10a11=   0.      1:tdn10a12=   0.      1:tdn10a13=   0.     
 +1:tdn10a14=   0.      1:tdn10a15=   0.      1:tdn10a16=   0.     
 +1:tdn10a17=   0.      1:tdn10a18=   0.      1:tdn10a19=   0.     
 +1:tdn10a2 =   0.      1:tdn10a20=   0.      1:tdn10a21=   0.     
 +1:tdn10a22=   0.      1:tdn10a23=   0.      1:tdn10a24=   0.     
 +1:tdn10a25=   0.      1:tdn10a26=   0.      1:tdn10a27=   0.     
 +1:tdn10a28=   0.      1:tdn10a29=   0.      1:tdn10a3 =   0.     
 +1:tdn10a30=   0.      1:tdn10a31=   0.      1:tdn10a32=   0.     
 +1:tdn10a4 =   0.      1:tdn10a5 =   0.      1:tdn10a6 =   0.     
 +1:tdn10a7 =   0.      1:tdn10a8 =   0.      1:tdn10a9 =   0.     
 +1:tdn11a10=   0.      1:tdn11a11=   0.      1:tdn11a12=   0.     
 +1:tdn11a13=   0.      1:tdn11a14=   0.      1:tdn11a15=   0.     
 +1:tdn11a16=   0.      1:tdn11a17=   0.      1:tdn11a18=   0.     
 +1:tdn11a19=   0.      1:tdn11a2 =   0.      1:tdn11a20=   0.     
 +1:tdn11a21=   0.      1:tdn11a22=   0.      1:tdn11a23=   0.     
 +1:tdn11a24=   0.      1:tdn11a25=   0.      1:tdn11a26=   0.     
 +1:tdn11a27=   0.      1:tdn11a28=   0.      1:tdn11a29=   0.     
 +1:tdn11a3 =   0.      1:tdn11a30=   0.      1:tdn11a31=   0.     
 +1:tdn11a32=   0.      1:tdn11a4 =   0.      1:tdn11a5 =   0.     
 +1:tdn11a6 =   0.      1:tdn11a7 =   0.      1:tdn11a8 =   0.     
 +1:tdn11a9 =   0.      1:tdn12a10=   0.      1:tdn12a11=   0.     
 +1:tdn12a12=   0.      1:tdn12a13=   0.      1:tdn12a14=   0.     
 +1:tdn12a15=   0.      1:tdn12a16=   0.      1:tdn12a17=   0.     
 +1:tdn12a18=   0.      1:tdn12a19=   0.      1:tdn12a2 =   0.     
 +1:tdn12a20=   0.      1:tdn12a21=   0.      1:tdn12a22=   0.     
 +1:tdn12a23=   0.      1:tdn12a24=   0.      1:tdn12a25=   0.     
 +1:tdn12a26=   0.      1:tdn12a27=   0.      1:tdn12a28=   0.     
 +1:tdn12a29=   0.      1:tdn12a3 =   0.      1:tdn12a30=   0.     
 +1:tdn12a31=   0.      1:tdn12a32=   0.      1:tdn12a4 =   0.     
 +1:tdn12a5 =   0.      1:tdn12a6 =   0.      1:tdn12a7 =   0.     
 +1:tdn12a8 =   0.      1:tdn12a9 =   0.      1:tdn13a10=   0.     
 +1:tdn13a11=   0.      1:tdn13a12=   0.      1:tdn13a13=   0.     
 +1:tdn13a14=   0.      1:tdn13a15=   0.      1:tdn13a16=   0.     
 +1:tdn13a17=   0.      1:tdn13a18=   0.      1:tdn13a19=   0.     
 +1:tdn13a2 =   0.      1:tdn13a20=   0.      1:tdn13a21=   0.     
 +1:tdn13a22=   0.      1:tdn13a23=   0.      1:tdn13a24=   0.     
 +1:tdn13a25=   0.      1:tdn13a26=   0.      1:tdn13a27=   0.     
 +1:tdn13a28=   0.      1:tdn13a29=   0.      1:tdn13a3 =   0.     
 +1:tdn13a30=   0.      1:tdn13a31=   0.      1:tdn13a32=   0.     
 +1:tdn13a4 =   0.      1:tdn13a5 =   0.      1:tdn13a6 =   0.     
 +1:tdn13a7 =   0.      1:tdn13a8 =   0.      1:tdn13a9 =   0.     
 +1:tdn14a10=   0.      1:tdn14a11=   0.      1:tdn14a12=   0.     
 +1:tdn14a13=   0.      1:tdn14a14=   0.      1:tdn14a15=   0.     
 +1:tdn14a16=   0.      1:tdn14a17=   0.      1:tdn14a18=   0.     
 +1:tdn14a19=   0.      1:tdn14a2 =   0.      1:tdn14a20=   0.     
 +1:tdn14a21=   0.      1:tdn14a22=   0.      1:tdn14a23=   0.     
 +1:tdn14a24=   0.      1:tdn14a25=   0.      1:tdn14a26=   0.     
 +1:tdn14a27=   0.      1:tdn14a28=   0.      1:tdn14a29=   0.     
 +1:tdn14a3 =   0.      1:tdn14a30=   0.      1:tdn14a31=   0.     
 +1:tdn14a32=   0.      1:tdn14a4 =   0.      1:tdn14a5 =   0.     
 +1:tdn14a6 =   0.      1:tdn14a7 =   0.      1:tdn14a8 =   0.     
 +1:tdn14a9 =   0.      1:tdn15a10=   0.      1:tdn15a11=   0.     
 +1:tdn15a12=   0.      1:tdn15a13=   0.      1:tdn15a14=   0.     
 +1:tdn15a15=   0.      1:tdn15a16=   0.      1:tdn15a17=   0.     
 +1:tdn15a18=   0.      1:tdn15a19=   0.      1:tdn15a2 =   0.     
 +1:tdn15a20=   0.      1:tdn15a21=   0.      1:tdn15a22=   0.     
 +1:tdn15a23=   0.      1:tdn15a24=   0.      1:tdn15a25=   0.     
 +1:tdn15a26=   0.      1:tdn15a27=   0.      1:tdn15a28=   0.     
 +1:tdn15a29=   0.      1:tdn15a3 =   0.      1:tdn15a30=   0.     
 +1:tdn15a31=   0.      1:tdn15a32=   0.      1:tdn15a4 =   0.     
 +1:tdn15a5 =   0.      1:tdn15a6 =   0.      1:tdn15a7 =   0.     
 +1:tdn15a8 =   0.      1:tdn15a9 =   0.      1:tdn16a10=   0.     
 +1:tdn16a11=   0.      1:tdn16a12=   0.      1:tdn16a13=   0.     
 +1:tdn16a14=   0.      1:tdn16a15=   0.      1:tdn16a16=   0.     
 +1:tdn16a17=   0.      1:tdn16a18=   0.      1:tdn16a19=   0.     
 +1:tdn16a2 =   0.      1:tdn16a20=   0.      1:tdn16a21=   0.     
 +1:tdn16a22=   0.      1:tdn16a23=   0.      1:tdn16a24=   0.     
 +1:tdn16a25=   0.      1:tdn16a26=   0.      1:tdn16a27=   0.     
 +1:tdn16a28=   0.      1:tdn16a29=   0.      1:tdn16a3 =   0.     
 +1:tdn16a30=   0.      1:tdn16a31=   0.      1:tdn16a32=   0.     
 +1:tdn16a4 =   0.      1:tdn16a5 =   0.      1:tdn16a6 =   0.     
 +1:tdn16a7 =   0.      1:tdn16a8 =   0.      1:tdn16a9 =   0.     
 +1:tdn17a10=   0.      1:tdn17a11=   0.      1:tdn17a12=   0.     
 +1:tdn17a13=   0.      1:tdn17a14=   0.      1:tdn17a15=   0.     
 +1:tdn17a16=   0.      1:tdn17a17=   0.      1:tdn17a18=   0.     
 +1:tdn17a19=   0.      1:tdn17a2 =   0.      1:tdn17a20=   0.     
 +1:tdn17a21=   0.      1:tdn17a22=   0.      1:tdn17a23=   0.     
 +1:tdn17a24=   0.      1:tdn17a25=   0.      1:tdn17a26=   0.     
 +1:tdn17a27=   0.      1:tdn17a28=   0.      1:tdn17a29=   0.     
 +1:tdn17a3 =   0.      1:tdn17a30=   0.      1:tdn17a31=   0.     
 +1:tdn17a32=   0.      1:tdn17a4 =   0.      1:tdn17a5 =   0.     
 +1:tdn17a6 =   0.      1:tdn17a7 =   0.      1:tdn17a8 =   0.     
 +1:tdn17a9 =   0.      1:tdn18a10=   0.      1:tdn18a11=   0.     
 +1:tdn18a12=   0.      1:tdn18a13=   0.      1:tdn18a14=   0.     
 +1:tdn18a15=   0.      1:tdn18a16=   0.      1:tdn18a17=   0.     
 +1:tdn18a18=   0.      1:tdn18a19=   0.      1:tdn18a2 =   0.     
 +1:tdn18a20=   0.      1:tdn18a21=   0.      1:tdn18a22=   0.     
 +1:tdn18a23=   0.      1:tdn18a24=   0.      1:tdn18a25=   0.     
 +1:tdn18a26=   0.      1:tdn18a27=   0.      1:tdn18a28=   0.     
 +1:tdn18a29=   0.      1:tdn18a3 =   0.      1:tdn18a30=   0.     
 +1:tdn18a31=   0.      1:tdn18a32=   0.      1:tdn18a4 =   0.     
 +1:tdn18a5 =   0.      1:tdn18a6 =   0.      1:tdn18a7 =   0.     
 +1:tdn18a8 =   0.      1:tdn18a9 =   0.      1:tdn19a10=   0.     
 +1:tdn19a11=   0.      1:tdn19a12=   0.      1:tdn19a13=   0.     
 +1:tdn19a14=   0.      1:tdn19a15=   0.      1:tdn19a16=   0.     
 +1:tdn19a17=   0.      1:tdn19a18=   0.      1:tdn19a19=   0.     
 +1:tdn19a2 =   0.      1:tdn19a20=   0.      1:tdn19a21=   0.     
 +1:tdn19a22=   0.      1:tdn19a23=   0.      1:tdn19a24=   0.     
 +1:tdn19a25=   0.      1:tdn19a26=   0.      1:tdn19a27=   0.     
 +1:tdn19a28=   0.      1:tdn19a29=   0.      1:tdn19a3 =   0.     
 +1:tdn19a30=   0.      1:tdn19a31=   0.      1:tdn19a32=   0.     
 +1:tdn19a4 =   0.      1:tdn19a5 =   0.      1:tdn19a6 =   0.     
 +1:tdn19a7 =   0.      1:tdn19a8 =   0.      1:tdn19a9 =   0.     
 +1:tdn1a10 =   0.      1:tdn1a11 =   0.      1:tdn1a12 =   0.     
 +1:tdn1a13 =   0.      1:tdn1a14 =   0.      1:tdn1a15 =   0.     
 +1:tdn1a16 =   0.      1:tdn1a17 =   0.      1:tdn1a18 =   0.     
 +1:tdn1a19 =   0.      1:tdn1a2  =   0.      1:tdn1a20 =   0.     
 +1:tdn1a21 =   0.      1:tdn1a22 =   0.      1:tdn1a23 =   0.     
 +1:tdn1a24 =   0.      1:tdn1a25 =   0.      1:tdn1a26 =   0.     
 +1:tdn1a27 =   0.      1:tdn1a28 =   0.      1:tdn1a29 =   0.     
 +1:tdn1a3  =   0.      1:tdn1a30 =   0.      1:tdn1a31 =   0.     
 +1:tdn1a32 =   0.      1:tdn1a4  =   0.      1:tdn1a5  =   0.     
 +1:tdn1a6  =   0.      1:tdn1a7  =   0.      1:tdn1a8  =   0.     
 +1:tdn1a9  =   0.      1:tdn20a10=   0.      1:tdn20a11=   0.     
 +1:tdn20a12=   0.      1:tdn20a13=   0.      1:tdn20a14=   0.     
 +1:tdn20a15=   0.      1:tdn20a16=   0.      1:tdn20a17=   0.     
 +1:tdn20a18=   0.      1:tdn20a19=   0.      1:tdn20a2 =   0.     
 +1:tdn20a20=   0.      1:tdn20a21=   0.      1:tdn20a22=   0.     
 +1:tdn20a23=   0.      1:tdn20a24=   0.      1:tdn20a25=   0.     
 +1:tdn20a26=   0.      1:tdn20a27=   0.      1:tdn20a28=   0.     
 +1:tdn20a29=   0.      1:tdn20a3 =   0.      1:tdn20a30=   0.     
 +1:tdn20a31=   0.      1:tdn20a32=   0.      1:tdn20a4 =   0.     
 +1:tdn20a5 =   0.      1:tdn20a6 =   0.      1:tdn20a7 =   0.     
 +1:tdn20a8 =   0.      1:tdn20a9 =   0.      1:tdn21a10=   0.     
 +1:tdn21a11=   0.      1:tdn21a12=   0.      1:tdn21a13=   0.     
 +1:tdn21a14=   0.      1:tdn21a15=   0.      1:tdn21a16=   0.     
 +1:tdn21a17=   0.      1:tdn21a18=   0.      1:tdn21a19=   0.     
 +1:tdn21a2 =   0.      1:tdn21a20=   0.      1:tdn21a21=   0.     
 +1:tdn21a22=   0.      1:tdn21a23=   0.      1:tdn21a24=   0.     
 +1:tdn21a25=   0.      1:tdn21a26=   0.      1:tdn21a27=   0.     
 +1:tdn21a28=   0.      1:tdn21a29=   0.      1:tdn21a3 =   0.     
 +1:tdn21a30=   0.      1:tdn21a31=   0.      1:tdn21a32=   0.     
 +1:tdn21a4 =   0.      1:tdn21a5 =   0.      1:tdn21a6 =   0.     
 +1:tdn21a7 =   0.      1:tdn21a8 =   0.      1:tdn21a9 =   0.     
 +1:tdn22a10=   0.      1:tdn22a11=   0.      1:tdn22a12=   0.     
 +1:tdn22a13=   0.      1:tdn22a14=   0.      1:tdn22a15=   0.     
 +1:tdn22a16=   0.      1:tdn22a17=   0.      1:tdn22a18=   0.     
 +1:tdn22a19=   0.      1:tdn22a2 =   0.      1:tdn22a20=   0.     
 +1:tdn22a21=   0.      1:tdn22a22=   0.      1:tdn22a23=   0.     
 +1:tdn22a24=   0.      1:tdn22a25=   0.      1:tdn22a26=   0.     
 +1:tdn22a27=   0.      1:tdn22a28=   0.      1:tdn22a29=   0.     
 +1:tdn22a3 =   0.      1:tdn22a30=   0.      1:tdn22a31=   0.     
 +1:tdn22a32=   0.      1:tdn22a4 =   0.      1:tdn22a5 =   0.     
 +1:tdn22a6 =   0.      1:tdn22a7 =   0.      1:tdn22a8 =   0.     
 +1:tdn22a9 =   0.      1:tdn23a10=   0.      1:tdn23a11=   0.     
 +1:tdn23a12=   0.      1:tdn23a13=   0.      1:tdn23a14=   0.     
 +1:tdn23a15=   0.      1:tdn23a16=   0.      1:tdn23a17=   0.     
 +1:tdn23a18=   0.      1:tdn23a19=   0.      1:tdn23a2 =   0.     
 +1:tdn23a20=   0.      1:tdn23a21=   0.      1:tdn23a22=   0.     
 +1:tdn23a23=   0.      1:tdn23a24=   0.      1:tdn23a25=   0.     
 +1:tdn23a26=   0.      1:tdn23a27=   0.      1:tdn23a28=   0.     
 +1:tdn23a29=   0.      1:tdn23a3 =   0.      1:tdn23a30=   0.     
 +1:tdn23a31=   0.      1:tdn23a32=   0.      1:tdn23a4 =   0.     
 +1:tdn23a5 =   0.      1:tdn23a6 =   0.      1:tdn23a7 =   0.     
 +1:tdn23a8 =   0.      1:tdn23a9 =   0.      1:tdn24a10=   0.     
 +1:tdn24a11=   0.      1:tdn24a12=   0.      1:tdn24a13=   0.     
 +1:tdn24a14=   0.      1:tdn24a15=   0.      1:tdn24a16=   0.     
 +1:tdn24a17=   0.      1:tdn24a18=   0.      1:tdn24a19=   0.     
 +1:tdn24a2 =   0.      1:tdn24a20=   0.      1:tdn24a21=   0.     
 +1:tdn24a22=   0.      1:tdn24a23=   0.      1:tdn24a24=   0.     
 +1:tdn24a25=   0.      1:tdn24a26=   0.      1:tdn24a27=   0.     
 +1:tdn24a28=   0.      1:tdn24a29=   0.      1:tdn24a3 =   0.     
 +1:tdn24a30=   0.      1:tdn24a31=   0.      1:tdn24a32=   0.     
 +1:tdn24a4 =   0.      1:tdn24a5 =   0.      1:tdn24a6 =   0.     
 +1:tdn24a7 =   0.      1:tdn24a8 =   0.      1:tdn24a9 =   0.     
 +1:tdn25a10=   0.      1:tdn25a11=   0.      1:tdn25a12=   0.     
 +1:tdn25a13=   0.      1:tdn25a14=   0.      1:tdn25a15=   0.     
 +1:tdn25a16=   0.      1:tdn25a17=   0.      1:tdn25a18=   0.     
 +1:tdn25a19=   0.      1:tdn25a2 =   0.      1:tdn25a20=   0.     
 +1:tdn25a21=   0.      1:tdn25a22=   0.      1:tdn25a23=   0.     
 +1:tdn25a24=   0.      1:tdn25a25=   0.      1:tdn25a26=   0.     
 +1:tdn25a27=   0.      1:tdn25a28=   0.      1:tdn25a29=   0.     
 +1:tdn25a3 =   0.      1:tdn25a30=   0.      1:tdn25a31=   0.     
 +1:tdn25a32=   0.      1:tdn25a4 =   0.      1:tdn25a5 =   0.     
 +1:tdn25a6 =   0.      1:tdn25a7 =   0.      1:tdn25a8 =   0.     
 +1:tdn25a9 =   0.      1:tdn26a10=   0.      1:tdn26a11=   0.     
 +1:tdn26a12=   0.      1:tdn26a13=   0.      1:tdn26a14=   0.     
 +1:tdn26a15=   0.      1:tdn26a16=   0.      1:tdn26a17=   0.     
 +1:tdn26a18=   0.      1:tdn26a19=   0.      1:tdn26a2 =   0.     
 +1:tdn26a20=   0.      1:tdn26a21=   0.      1:tdn26a22=   0.     
 +1:tdn26a23=   0.      1:tdn26a24=   0.      1:tdn26a25=   0.     
 +1:tdn26a26=   0.      1:tdn26a27=   0.      1:tdn26a28=   0.     
 +1:tdn26a29=   0.      1:tdn26a3 =   0.      1:tdn26a30=   0.     
 +1:tdn26a31=   0.      1:tdn26a32=   0.      1:tdn26a4 =   0.     
 +1:tdn26a5 =   0.      1:tdn26a6 =   0.      1:tdn26a7 =   0.     
 +1:tdn26a8 =   0.      1:tdn26a9 =   0.      1:tdn27a10=   0.     
 +1:tdn27a11=   0.      1:tdn27a12=   0.      1:tdn27a13=   0.     
 +1:tdn27a14=   0.      1:tdn27a15=   0.      1:tdn27a16=   0.     
 +1:tdn27a17=   0.      1:tdn27a18=   0.      1:tdn27a19=   0.     
 +1:tdn27a2 =   0.      1:tdn27a20=   0.      1:tdn27a21=   0.     
 +1:tdn27a22=   0.      1:tdn27a23=   0.      1:tdn27a24=   0.     
 +1:tdn27a25=   0.      1:tdn27a26=   0.      1:tdn27a27=   0.     
 +1:tdn27a28=   0.      1:tdn27a29=   0.      1:tdn27a3 =   0.     
 +1:tdn27a30=   0.      1:tdn27a31=   0.      1:tdn27a32=   0.     
 +1:tdn27a4 =   0.      1:tdn27a5 =   0.      1:tdn27a6 =   0.     
 +1:tdn27a7 =   0.      1:tdn27a8 =   0.      1:tdn27a9 =   0.     
 +1:tdn28a10=   0.      1:tdn28a11=   0.      1:tdn28a12=   0.     
 +1:tdn28a13=   0.      1:tdn28a14=   0.      1:tdn28a15=   0.     
 +1:tdn28a16=   0.      1:tdn28a17=   0.      1:tdn28a18=   0.     
 +1:tdn28a19=   0.      1:tdn28a2 =   0.      1:tdn28a20=   0.     
 +1:tdn28a21=   0.      1:tdn28a22=   0.      1:tdn28a23=   0.     
 +1:tdn28a24=   0.      1:tdn28a25=   0.      1:tdn28a26=   0.     
 +1:tdn28a27=   0.      1:tdn28a28=   0.      1:tdn28a29=   0.     
 +1:tdn28a3 =   0.      1:tdn28a30=   0.      1:tdn28a31=   0.     
 +1:tdn28a32=   0.      1:tdn28a4 =   0.      1:tdn28a5 =   0.     
 +1:tdn28a6 =   0.      1:tdn28a7 =   0.      1:tdn28a8 =   0.     
 +1:tdn28a9 =   0.      1:tdn29a10=   0.      1:tdn29a11=   0.     
 +1:tdn29a12=   0.      1:tdn29a13=   0.      1:tdn29a14=   0.     
 +1:tdn29a15=   0.      1:tdn29a16=   0.      1:tdn29a17=   0.     
 +1:tdn29a18=   0.      1:tdn29a19=   0.      1:tdn29a2 =   0.     
 +1:tdn29a20=   0.      1:tdn29a21=   0.      1:tdn29a22=   0.     
 +1:tdn29a23=   0.      1:tdn29a24=   0.      1:tdn29a25=   0.     
 +1:tdn29a26=   0.      1:tdn29a27=   0.      1:tdn29a28=   0.     
 +1:tdn29a29=   0.      1:tdn29a3 =   0.      1:tdn29a30=   0.     
 +1:tdn29a31=   0.      1:tdn29a32=   0.      1:tdn29a4 =   0.     
 +1:tdn29a5 =   0.      1:tdn29a6 =   0.      1:tdn29a7 =   0.     
 +1:tdn29a8 =   0.      1:tdn29a9 =   0.      1:tdn2a10 =   0.     
 +1:tdn2a11 =   0.      1:tdn2a12 =   0.      1:tdn2a13 =   0.     
 +1:tdn2a14 =   0.      1:tdn2a15 =   0.      1:tdn2a16 =   0.     
 +1:tdn2a17 =   0.      1:tdn2a18 =   0.      1:tdn2a19 =   0.     
 +1:tdn2a2  =   0.      1:tdn2a20 =   0.      1:tdn2a21 =   0.     
 +1:tdn2a22 =   0.      1:tdn2a23 =   0.      1:tdn2a24 =   0.     
 +1:tdn2a25 =   0.      1:tdn2a26 =   0.      1:tdn2a27 =   0.     
 +1:tdn2a28 =   0.      1:tdn2a29 =   0.      1:tdn2a3  =   0.     
 +1:tdn2a30 =   0.      1:tdn2a31 =   0.      1:tdn2a32 =   0.     
 +1:tdn2a4  =   0.      1:tdn2a5  =   0.      1:tdn2a6  =   0.     
 +1:tdn2a7  =   0.      1:tdn2a8  =   0.      1:tdn2a9  =   0.     
 +1:tdn30a10=   0.      1:tdn30a11=   0.      1:tdn30a12=   0.     
 +1:tdn30a13=   0.      1:tdn30a14=   0.      1:tdn30a15=   0.     
 +1:tdn30a16=   0.      1:tdn30a17=   0.      1:tdn30a18=   0.     
 +1:tdn30a19=   0.      1:tdn30a2 =   0.      1:tdn30a20=   0.     
 +1:tdn30a21=   0.      1:tdn30a22=   0.      1:tdn30a23=   0.     
 +1:tdn30a24=   0.      1:tdn30a25=   0.      1:tdn30a26=   0.     
 +1:tdn30a27=   0.      1:tdn30a28=   0.      1:tdn30a29=   0.     
 +1:tdn30a3 =   0.      1:tdn30a30=   0.      1:tdn30a31=   0.     
 +1:tdn30a32=   0.      1:tdn30a4 =   0.      1:tdn30a5 =   0.     
 +1:tdn30a6 =   0.      1:tdn30a7 =   0.      1:tdn30a8 =   0.     
 +1:tdn30a9 =   0.      1:tdn31a10=   0.      1:tdn31a11=   0.     
 +1:tdn31a12=   0.      1:tdn31a13=   0.      1:tdn31a14=   0.     
 +1:tdn31a15=   0.      1:tdn31a16=   0.      1:tdn31a17=   0.     
 +1:tdn31a18=   0.      1:tdn31a19=   0.      1:tdn31a2 =   0.     
 +1:tdn31a20=   0.      1:tdn31a21=   0.      1:tdn31a22=   0.     
 +1:tdn31a23=   0.      1:tdn31a24=   0.      1:tdn31a25=   0.     
 +1:tdn31a26=   0.      1:tdn31a27=   0.      1:tdn31a28=   0.     
 +1:tdn31a29=   0.      1:tdn31a3 =   0.      1:tdn31a30=   0.     
 +1:tdn31a31=   0.      1:tdn31a32=   0.      1:tdn31a4 =   0.     
 +1:tdn31a5 =   0.      1:tdn31a6 =   0.      1:tdn31a7 =   0.     
 +1:tdn31a8 =   0.      1:tdn31a9 =   0.      1:tdn32a10=   0.     
 +1:tdn32a11=   0.      1:tdn32a12=   0.      1:tdn32a13=   0.     
 +1:tdn32a14=   0.      1:tdn32a15=   0.      1:tdn32a16=   0.     
 +1:tdn32a17=   0.      1:tdn32a18=   0.      1:tdn32a19=   0.     
 +1:tdn32a2 =   0.      1:tdn32a20=   0.      1:tdn32a21=   0.     
 +1:tdn32a22=   0.      1:tdn32a23=   0.      1:tdn32a24=   0.     
 +1:tdn32a25=   0.      1:tdn32a26=   0.      1:tdn32a27=   0.     
 +1:tdn32a28=   0.      1:tdn32a29=   0.      1:tdn32a3 =   0.     
 +1:tdn32a30=   0.      1:tdn32a31=   0.      1:tdn32a32=   0.     
 +1:tdn32a4 =   0.      1:tdn32a5 =   0.      1:tdn32a6 =   0.     
 +1:tdn32a7 =   0.      1:tdn32a8 =   0.      1:tdn32a9 =   0.     
 +1:tdn3a10 =   0.      1:tdn3a11 =   0.      1:tdn3a12 =   0.     
 +1:tdn3a13 =   0.      1:tdn3a14 =   0.      1:tdn3a15 =   0.     
 +1:tdn3a16 =   0.      1:tdn3a17 =   0.      1:tdn3a18 =   0.     
 +1:tdn3a19 =   0.      1:tdn3a2  =   0.      1:tdn3a20 =   0.     
 +1:tdn3a21 =   0.      1:tdn3a22 =   0.      1:tdn3a23 =   0.     
 +1:tdn3a24 =   0.      1:tdn3a25 =   0.      1:tdn3a26 =   0.     
 +1:tdn3a27 =   0.      1:tdn3a28 =   0.      1:tdn3a29 =   0.     
 +1:tdn3a3  =   0.      1:tdn3a30 =   0.      1:tdn3a31 =   0.     
 +1:tdn3a32 =   0.      1:tdn3a4  =   0.      1:tdn3a5  =   0.     
 +1:tdn3a6  =   0.      1:tdn3a7  =   0.      1:tdn3a8  =   0.     
 +1:tdn3a9  =   0.      1:tdn4a10 =   0.      1:tdn4a11 =   0.     
 +1:tdn4a12 =   0.      1:tdn4a13 =   0.      1:tdn4a14 =   0.     
 +1:tdn4a15 =   0.      1:tdn4a16 =   0.      1:tdn4a17 =   0.     
 +1:tdn4a18 =   0.      1:tdn4a19 =   0.      1:tdn4a2  =   0.     
 +1:tdn4a20 =   0.      1:tdn4a21 =   0.      1:tdn4a22 =   0.     
 +1:tdn4a23 =   0.      1:tdn4a24 =   0.      1:tdn4a25 =   0.     
 +1:tdn4a26 =   0.      1:tdn4a27 =   0.      1:tdn4a28 =   0.     
 +1:tdn4a29 =   0.      1:tdn4a3  =   0.      1:tdn4a30 =   0.     
 +1:tdn4a31 =   0.      1:tdn4a32 =   0.      1:tdn4a4  =   0.     
 +1:tdn4a5  =   0.      1:tdn4a6  =   0.      1:tdn4a7  =   0.     
 +1:tdn4a8  =   0.      1:tdn4a9  =   0.      1:tdn5a10 =   0.     
 +1:tdn5a11 =   0.      1:tdn5a12 =   0.      1:tdn5a13 =   0.     
 +1:tdn5a14 =   0.      1:tdn5a15 =   0.      1:tdn5a16 =   0.     
 +1:tdn5a17 =   0.      1:tdn5a18 =   0.      1:tdn5a19 =   0.     
 +1:tdn5a2  =   0.      1:tdn5a20 =   0.      1:tdn5a21 =   0.     
 +1:tdn5a22 =   0.      1:tdn5a23 =   0.      1:tdn5a24 =   0.     
 +1:tdn5a25 =   0.      1:tdn5a26 =   0.      1:tdn5a27 =   0.     
 +1:tdn5a28 =   0.      1:tdn5a29 =   0.      1:tdn5a3  =   0.     
 +1:tdn5a30 =   0.      1:tdn5a31 =   0.      1:tdn5a32 =   0.     
 +1:tdn5a4  =   0.      1:tdn5a5  =   0.      1:tdn5a6  =   0.     
 +1:tdn5a7  =   0.      1:tdn5a8  =   0.      1:tdn5a9  =   0.     
 +1:tdn6a10 =   0.      1:tdn6a11 =   0.      1:tdn6a12 =   0.     
 +1:tdn6a13 =   0.      1:tdn6a14 =   0.      1:tdn6a15 =   0.     
 +1:tdn6a16 =   0.      1:tdn6a17 =   0.      1:tdn6a18 =   0.     
 +1:tdn6a19 =   0.      1:tdn6a2  =   0.      1:tdn6a20 =   0.     
 +1:tdn6a21 =   0.      1:tdn6a22 =   0.      1:tdn6a23 =   0.     
 +1:tdn6a24 =   0.      1:tdn6a25 =   0.      1:tdn6a26 =   0.     
 +1:tdn6a27 =   0.      1:tdn6a28 =   0.      1:tdn6a29 =   0.     
 +1:tdn6a3  =   0.      1:tdn6a30 =   0.      1:tdn6a31 =   0.     
 +1:tdn6a32 =   0.      1:tdn6a4  =   0.      1:tdn6a5  =   0.     
 +1:tdn6a6  =   0.      1:tdn6a7  =   0.      1:tdn6a8  =   0.     
 +1:tdn6a9  =   0.      1:tdn7a10 =   0.      1:tdn7a11 =   0.     
 +1:tdn7a12 =   0.      1:tdn7a13 =   0.      1:tdn7a14 =   0.     
 +1:tdn7a15 =   0.      1:tdn7a16 =   0.      1:tdn7a17 =   0.     
 +1:tdn7a18 =   0.      1:tdn7a19 =   0.      1:tdn7a2  =   0.     
 +1:tdn7a20 =   0.      1:tdn7a21 =   0.      1:tdn7a22 =   0.     
 +1:tdn7a23 =   0.      1:tdn7a24 =   0.      1:tdn7a25 =   0.     
 +1:tdn7a26 =   0.      1:tdn7a27 =   0.      1:tdn7a28 =   0.     
 +1:tdn7a29 =   0.      1:tdn7a3  =   0.      1:tdn7a30 =   0.     
 +1:tdn7a31 =   0.      1:tdn7a32 =   0.      1:tdn7a4  =   0.     
 +1:tdn7a5  =   0.      1:tdn7a6  =   0.      1:tdn7a7  =   0.     
 +1:tdn7a8  =   0.      1:tdn7a9  =   0.      1:tdn8a10 =   0.     
 +1:tdn8a11 =   0.      1:tdn8a12 =   0.      1:tdn8a13 =   0.     
 +1:tdn8a14 =   0.      1:tdn8a15 =   0.      1:tdn8a16 =   0.     
 +1:tdn8a17 =   0.      1:tdn8a18 =   0.      1:tdn8a19 =   0.     
 +1:tdn8a2  =   0.      1:tdn8a20 =   0.      1:tdn8a21 =   0.     
 +1:tdn8a22 =   0.      1:tdn8a23 =   0.      1:tdn8a24 =   0.     
 +1:tdn8a25 =   0.      1:tdn8a26 =   0.      1:tdn8a27 =   0.     
 +1:tdn8a28 =   0.      1:tdn8a29 =   0.      1:tdn8a3  =   0.     
 +1:tdn8a30 =   0.      1:tdn8a31 =   0.      1:tdn8a32 =   0.     
 +1:tdn8a4  =   0.      1:tdn8a5  =   0.      1:tdn8a6  =   0.     
 +1:tdn8a7  =   0.      1:tdn8a8  =   0.      1:tdn8a9  =   0.     
 +1:tdn9a10 =   0.      1:tdn9a11 =   0.      1:tdn9a12 =   0.     
 +1:tdn9a13 =   0.      1:tdn9a14 =   0.      1:tdn9a15 =   0.     
 +1:tdn9a16 =   0.      1:tdn9a17 =   0.      1:tdn9a18 =   0.     
 +1:tdn9a19 =   0.      1:tdn9a2  =   0.      1:tdn9a20 =   0.     
 +1:tdn9a21 =   0.      1:tdn9a22 =   0.      1:tdn9a23 =   0.     
 +1:tdn9a24 =   0.      1:tdn9a25 =   0.      1:tdn9a26 =   0.     
 +1:tdn9a27 =   0.      1:tdn9a28 =   0.      1:tdn9a29 =   0.     
 +1:tdn9a3  =   0.      1:tdn9a30 =   0.      1:tdn9a31 =   0.     
 +1:tdn9a32 =   0.      1:tdn9a4  =   0.      1:tdn9a5  =   0.     
 +1:tdn9a6  =   0.      1:tdn9a7  =   0.      1:tdn9a8  =   0.     
 +1:tdn9a9  =   0.      1:tdnga10 =   0.      1:tdnga11 =   0.     
 +1:tdnga12 =   0.      1:tdnga13 =   0.      1:tdnga14 =   0.     
 +1:tdnga15 =   0.      1:tdnga16 =   0.      1:tdnga17 =   0.     
 +1:tdnga18 =   0.      1:tdnga19 =   0.      1:tdnga2  =   0.     
 +1:tdnga20 =   0.      1:tdnga21 =   0.      1:tdnga22 =   0.     
 +1:tdnga23 =   0.      1:tdnga24 =   0.      1:tdnga25 =   0.     
 +1:tdnga26 =   0.      1:tdnga27 =   0.      1:tdnga28 =   0.     
 +1:tdnga29 =   0.      1:tdnga3  =   0.      1:tdnga30 =   0.     
 +1:tdnga31 =   0.      1:tdnga32 =   0.      1:tdnga4  =   0.     
 +1:tdnga5  =   0.      1:tdnga6  =   0.      1:tdnga7  =   0.     
 +1:tdnga8  =   0.      1:tdnga9  =   0.      1:tdnva10 =   0.     
 +1:tdnva11 =   0.      1:tdnva12 =   0.      1:tdnva13 =   0.     
 +1:tdnva14 =   0.      1:tdnva15 =   0.      1:tdnva16 =   0.     
 +1:tdnva17 =   0.      1:tdnva18 =   0.      1:tdnva19 =   0.     
 +1:tdnva2  =   0.      1:tdnva20 =   0.      1:tdnva21 =   0.     
 +1:tdnva22 =   0.      1:tdnva23 =   0.      1:tdnva24 =   0.     
 +1:tdnva25 =   0.      1:tdnva26 =   0.      1:tdnva27 =   0.     
 +1:tdnva28 =   0.      1:tdnva29 =   0.      1:tdnva3  =   0.     
 +1:tdnva30 =   0.      1:tdnva31 =   0.      1:tdnva32 =   0.     
 +1:tdnva4  =   0.      1:tdnva5  =   0.      1:tdnva6  =   0.     
 +1:tdnva7  =   0.      1:tdnva8  =   0.      1:tdnva9  =   0.     

 ******
 *a bus interconnect circuit with 34 bus line 16 segment.

 ****** transient analysis tnom=  25.000 temp=  25.000 ******
x

 time         voltage    voltage    voltage    voltage   
             tdn1a9     tdn2a9     tdn3a9     tdn4a9     
    0.          0.         0.         0.         0.      
   10.00000p  -13.5143m  -13.5143m  -13.5143m  -13.5143m 
   20.00000p  -27.8383m  -27.8376m  -27.8378m  -27.8378m 
   30.00000p  -42.3166m  -42.3149m  -42.3153m  -42.3153m 
   40.00000p  -57.0482m  -56.9222m  -56.8915m  -56.8828m 
   50.00000p  -73.3350m  -72.3288m  -72.0736m  -72.0030m 
   60.00000p  -89.6218m  -87.7353m  -87.2557m  -87.1231m 
   70.00000p -105.9086m -103.1418m -102.4378m -102.2432m 
   80.00000p -122.1954m -118.5483m -117.6199m -117.3633m 
   90.00000p -138.4822m -133.9548m -132.8020m -132.4834m 
  100.00000p -154.7691m -149.3613m -147.9841m -147.6035m 
  110.00000p -171.0559m -164.7679m -163.1662m -162.7236m 
  120.00000p -187.3427m -180.1744m -178.3483m -177.8437m 
  130.00000p -213.5594m -202.6032m -198.5973m -197.2118m 
  140.00000p -240.3207m -225.4172m -219.1242m -216.8128m 
  150.00000p -267.0820m -248.2312m -239.6512m -236.4139m 
  160.00000p -293.8434m -271.0452m -260.1782m -256.0149m 
  170.00000p -320.6047m -293.8593m -280.7051m -275.6160m 
  180.00000p -347.3661m -316.6733m -301.2321m -295.2170m 
  190.00000p -374.1274m -339.4873m -321.7591m -314.8181m 
  200.00000p -400.8888m -362.3013m -342.2860m -334.4191m 
  210.00000p -427.6501m -385.1153m -362.8130m -354.0202m 
  220.00000p -454.4114m -407.9293m -383.3399m -373.6212m 
  230.00000p -481.1728m -430.7434m -403.8669m -393.2223m 
  240.00000p -507.9341m -453.5574m -424.3939m -412.8233m 
  250.00000p -534.6955m -476.3714m -444.9208m -432.4244m 
  260.00000p -561.4568m -499.1854m -465.4478m -452.0254m 
  270.00000p -588.2181m -521.9994m -485.9747m -471.6265m 
  280.00000p -614.9795m -544.8134m -506.5017m -491.2275m 
  290.00000p -641.7408m -567.6275m -527.0287m -510.8286m 
  300.00000p -668.5022m -590.4415m -547.5556m -530.4296m 
  310.00000p -695.2635m -613.2555m -568.0826m -550.0307m 
  320.00000p -722.0248m -636.0695m -588.6096m -569.6317m 
  330.00000p -748.7862m -658.8835m -609.1365m -589.2328m 
  340.00000p -782.3837m -690.6779m -639.4333m -618.9984m 
  350.00000p -823.4591m -732.2957m -680.4171m -659.8827m 
  360.00000p -864.5345m -773.9134m -721.4009m -700.7670m 
  370.00000p -905.6099m -815.5312m -762.3847m -741.6514m 
  380.00000p -946.6853m -857.1489m -803.3685m -782.5357m 
  390.00000p -987.7608m -898.7667m -844.3523m -823.4200m 
  400.00000p   -1.0288  -940.3845m -885.3361m -864.3044m 
  410.00000p   -1.0699  -982.0022m -926.3199m -905.1887m 
  420.00000p   -1.1110    -1.0236  -967.3037m -946.0731m 
  430.00000p   -1.1521    -1.0652    -1.0083  -986.9574m 
  440.00000p   -1.1931    -1.1069    -1.0493    -1.0278  
  450.00000p   -1.2342    -1.1485    -1.0903    -1.0687  
  460.00000p   -1.2753    -1.1901    -1.1312    -1.1096  
  470.00000p   -1.3164    -1.2317    -1.1722    -1.1505  
  480.00000p   -1.3574    -1.2733    -1.2132    -1.1914  
  490.00000p   -1.3985    -1.3149    -1.2542    -1.2323  
  500.00000p   -1.4396    -1.3566    -1.2952    -1.2731  
  510.00000p   -1.4807    -1.3982    -1.3362    -1.3140  
  520.00000p   -1.5217    -1.4398    -1.3771    -1.3549  
  530.00000p   -1.5628    -1.4814    -1.4181    -1.3958  
  540.00000p   -1.6039    -1.5230    -1.4591    -1.4367  
  550.00000p   -1.6450    -1.5647    -1.5001    -1.4776  
  560.00000p   -1.6860    -1.6063    -1.5411    -1.5185  
  570.00000p   -1.7271    -1.6479    -1.5821    -1.5593  
  580.00000p   -1.7682    -1.6895    -1.6230    -1.6002  
  590.00000p   -1.8093    -1.7311    -1.6640    -1.6411  
  600.00000p   -1.8503    -1.7727    -1.7050    -1.6820  
  610.00000p   -1.8914    -1.8144    -1.7460    -1.7229  
  620.00000p   -1.9325    -1.8560    -1.7870    -1.7638  
  630.00000p   -1.9736    -1.8976    -1.8280    -1.8046  
  640.00000p   -2.0146    -1.9392    -1.8689    -1.8455  
  650.00000p   -2.0748    -2.0028    -1.9344    -1.9119  
  660.00000p   -2.1370    -2.0686    -2.0024    -1.9808  
  670.00000p   -2.1991    -2.1344    -2.0704    -2.0498  
  680.00000p   -2.2613    -2.2002    -2.1384    -2.1188  
  690.00000p   -2.3234    -2.2660    -2.2064    -2.1878  
  700.00000p   -2.3856    -2.3318    -2.2744    -2.2568  
  710.00000p   -2.4478    -2.3976    -2.3424    -2.3257  
  720.00000p   -2.5099    -2.4635    -2.4104    -2.3947  
  730.00000p   -2.5721    -2.5293    -2.4784    -2.4637  
  740.00000p   -2.6342    -2.5951    -2.5464    -2.5327  
  750.00000p   -2.6964    -2.6609    -2.6144    -2.6016  
  760.00000p   -2.7585    -2.7267    -2.6824    -2.6706  
  770.00000p   -2.8207    -2.7925    -2.7504    -2.7396  
  780.00000p   -2.8828    -2.8583    -2.8184    -2.8086  
  790.00000p   -2.9450    -2.9242    -2.8864    -2.8775  
  800.00000p   -3.0072    -2.9900    -2.9544    -2.9465  
  810.00000p   -3.0693    -3.0558    -3.0224    -3.0155  
  820.00000p   -3.1315    -3.1216    -3.0904    -3.0845  
  830.00000p   -3.1936    -3.1874    -3.1583    -3.1534  
  840.00000p   -3.2558    -3.2532    -3.2263    -3.2224  
  850.00000p   -3.3179    -3.3190    -3.2943    -3.2914  
  860.00000p   -3.3801    -3.3849    -3.3623    -3.3604  
  870.00000p   -3.4422    -3.4507    -3.4303    -3.4294  
  880.00000p   -3.5044    -3.5165    -3.4983    -3.4983  
  890.00000p   -3.5666    -3.5823    -3.5663    -3.5673  
  900.00000p   -3.6287    -3.6481    -3.6343    -3.6363  
  910.00000p   -3.6909    -3.7139    -3.7023    -3.7053  
  920.00000p   -3.7530    -3.7797    -3.7703    -3.7742  
  930.00000p   -3.8152    -3.8456    -3.8383    -3.8432  
  940.00000p   -3.8773    -3.9114    -3.9063    -3.9122  
  950.00000p   -3.9395    -3.9772    -3.9743    -3.9812  
  960.00000p   -4.0016    -4.0430    -4.0423    -4.0501  
  970.00000p   -4.0638    -4.1088    -4.1103    -4.1191  
  980.00000p   -4.1260    -4.1746    -4.1783    -4.1881  
  990.00000p   -4.1881    -4.2405    -4.2463    -4.2571  
 1000.00000p   -4.2503    -4.3063    -4.3143    -4.3260  
    1.01000n   -4.3124    -4.3721    -4.3823    -4.3950  
    1.02000n   -4.3746    -4.4379    -4.4503    -4.4640  
    1.03000n   -4.4367    -4.5037    -4.5183    -4.5330  
    1.04000n   -4.4989    -4.5695    -4.5863    -4.6019  
    1.05000n   -4.5610    -4.6353    -4.6543    -4.6709  
    1.06000n   -4.6232    -4.7012    -4.7223    -4.7399  
    1.07000n   -4.6854    -4.7670    -4.7903    -4.8089  
    1.08000n   -4.7475    -4.8328    -4.8583    -4.8779  
    1.09000n   -4.8097    -4.8986    -4.9263    -4.9468  
    1.10000n   -4.8718    -4.9644    -4.9943    -5.0158  
    1.11000n   -4.9345    -5.0303    -5.0621    -5.0844  
    1.12000n   -5.0009    -5.0970    -5.1285    -5.1503  
    1.13000n   -5.0673    -5.1637    -5.1950    -5.2162  
    1.14000n   -5.1337    -5.2304    -5.2614    -5.2821  
    1.15000n   -5.2002    -5.2970    -5.3279    -5.3479  
    1.16000n   -5.2666    -5.3637    -5.3943    -5.4138  
    1.17000n   -5.3330    -5.4304    -5.4608    -5.4797  
    1.18000n   -5.3994    -5.4971    -5.5272    -5.5456  
    1.19000n   -5.4658    -5.5637    -5.5937    -5.6115  
    1.20000n   -5.5322    -5.6304    -5.6601    -5.6773  
    1.21000n   -5.5987    -5.6971    -5.7266    -5.7432  
    1.22000n   -5.6651    -5.7638    -5.7930    -5.8091  
    1.23000n   -5.7315    -5.8304    -5.8595    -5.8750  
    1.24000n   -5.7979    -5.8971    -5.9259    -5.9409  
    1.25000n   -5.8643    -5.9638    -5.9924    -6.0068  
    1.26000n   -5.9307    -6.0305    -6.0588    -6.0726  
    1.27000n   -5.9972    -6.0971    -6.1253    -6.1385  
    1.28000n   -6.0636    -6.1638    -6.1917    -6.2044  
    1.29000n   -6.1300    -6.2305    -6.2582    -6.2703  
    1.30000n   -6.1964    -6.2971    -6.3246    -6.3362  
    1.31000n   -6.2628    -6.3638    -6.3911    -6.4021  
    1.32000n   -6.3292    -6.4305    -6.4575    -6.4679  
    1.33000n   -6.3957    -6.4972    -6.5240    -6.5338  
    1.34000n   -6.4621    -6.5638    -6.5904    -6.5997  
    1.35000n   -6.5285    -6.6305    -6.6569    -6.6656  
    1.36000n   -6.5949    -6.6972    -6.7233    -6.7315  
    1.37000n   -6.6613    -6.7639    -6.7898    -6.7973  
    1.38000n   -6.7277    -6.8305    -6.8562    -6.8632  
    1.39000n   -6.7942    -6.8972    -6.9227    -6.9291  
    1.40000n   -6.8606    -6.9639    -6.9891    -6.9950  
    1.41000n   -6.9270    -7.0306    -7.0556    -7.0609  
    1.42000n   -6.9934    -7.0972    -7.1220    -7.1268  
    1.43000n   -7.0598    -7.1639    -7.1885    -7.1926  
    1.44000n   -7.1263    -7.2306    -7.2549    -7.2585  
    1.45000n   -7.1927    -7.2973    -7.3214    -7.3244  
    1.46000n   -7.2591    -7.3639    -7.3878    -7.3903  
    1.47000n   -7.3255    -7.4306    -7.4543    -7.4562  
    1.48000n   -7.3919    -7.4973    -7.5207    -7.5220  
    1.49000n   -7.4583    -7.5640    -7.5872    -7.5879  
    1.50000n   -7.5248    -7.6306    -7.6536    -7.6538  
    1.51000n   -7.5614    -7.6670    -7.6901    -7.6905  
    1.52000n   -7.5981    -7.7034    -7.7265    -7.7271  
    1.53000n   -7.6348    -7.7397    -7.7630    -7.7638  
    1.54000n   -7.6715    -7.7761    -7.7995    -7.8004  
    1.55000n   -7.7081    -7.8124    -7.8359    -7.8371  
    1.56000n   -7.7448    -7.8488    -7.8724    -7.8737  
    1.57000n   -7.7815    -7.8852    -7.9089    -7.9104  
    1.58000n   -7.8182    -7.9215    -7.9453    -7.9470  
    1.59000n   -7.8549    -7.9579    -7.9818    -7.9837  
    1.60000n   -7.8915    -7.9942    -8.0183    -8.0203  
    1.61000n   -7.9282    -8.0306    -8.0547    -8.0570  
    1.62000n   -7.9649    -8.0669    -8.0912    -8.0936  
    1.63000n   -8.0016    -8.1033    -8.1277    -8.1303  
    1.64000n   -8.0382    -8.1397    -8.1641    -8.1670  
    1.65000n   -8.0749    -8.1760    -8.2006    -8.2036  
    1.66000n   -8.1116    -8.2124    -8.2371    -8.2403  
    1.67000n   -8.1483    -8.2487    -8.2735    -8.2769  
    1.68000n   -8.1850    -8.2851    -8.3100    -8.3136  
    1.69000n   -8.2216    -8.3215    -8.3464    -8.3502  
    1.70000n   -8.2583    -8.3578    -8.3829    -8.3869  
    1.71000n   -8.2950    -8.3942    -8.4194    -8.4235  
    1.72000n   -8.3317    -8.4305    -8.4558    -8.4602  
    1.73000n   -8.3683    -8.4669    -8.4923    -8.4968  
    1.74000n   -8.4050    -8.5033    -8.5288    -8.5335  
    1.75000n   -8.4417    -8.5396    -8.5652    -8.5701  
    1.76000n   -8.4784    -8.5760    -8.6017    -8.6068  
    1.77000n   -8.5151    -8.6123    -8.6382    -8.6434  
    1.78000n   -8.5517    -8.6487    -8.6746    -8.6801  
    1.79000n   -8.5884    -8.6850    -8.7111    -8.7167  
    1.80000n   -8.6251    -8.7214    -8.7476    -8.7534  
    1.81000n   -8.6618    -8.7578    -8.7840    -8.7900  
    1.82000n   -8.6984    -8.7941    -8.8205    -8.8267  
    1.83000n   -8.7351    -8.8305    -8.8570    -8.8634  
    1.84000n   -8.7718    -8.8668    -8.8934    -8.9000  
    1.85000n   -8.8039    -8.8983    -8.9249    -8.9315  
    1.86000n   -8.8347    -8.9286    -8.9550    -8.9617  
    1.87000n   -8.8655    -8.9588    -8.9851    -8.9918  
    1.88000n   -8.8964    -8.9890    -9.0152    -9.0220  
    1.89000n   -8.9272    -9.0192    -9.0454    -9.0521  
    1.90000n   -8.9581    -9.0495    -9.0755    -9.0823  
    1.91000n   -8.9889    -9.0797    -9.1056    -9.1124  
    1.92000n   -9.0197    -9.1099    -9.1357    -9.1426  
    1.93000n   -9.0506    -9.1402    -9.1658    -9.1727  
    1.94000n   -9.0814    -9.1704    -9.1960    -9.2029  
    1.95000n   -9.1123    -9.2006    -9.2261    -9.2330  
    1.96000n   -9.1431    -9.2308    -9.2562    -9.2632  
    1.97000n   -9.1739    -9.2611    -9.2863    -9.2933  
    1.98000n   -9.2048    -9.2913    -9.3165    -9.3235  
    1.99000n   -9.2356    -9.3215    -9.3466    -9.3536  
    2.00000n   -9.2665    -9.3518    -9.3767    -9.3838  
    2.01000n   -9.2973    -9.3820    -9.4068    -9.4139  
    2.02000n   -9.3281    -9.4122    -9.4370    -9.4441  
    2.03000n   -9.3590    -9.4424    -9.4671    -9.4742  
    2.04000n   -9.3898    -9.4727    -9.4972    -9.5044  
    2.05000n   -9.4207    -9.5029    -9.5273    -9.5345  
    2.06000n   -9.4515    -9.5331    -9.5575    -9.5647  
    2.07000n   -9.4823    -9.5634    -9.5876    -9.5948  
    2.08000n   -9.5132    -9.5936    -9.6177    -9.6250  
    2.09000n   -9.5440    -9.6238    -9.6478    -9.6551  
    2.10000n   -9.5658    -9.6451    -9.6691    -9.6764  
    2.11000n   -9.5825    -9.6615    -9.6854    -9.6926  
    2.12000n   -9.5992    -9.6778    -9.7017    -9.7089  
    2.13000n   -9.6160    -9.6942    -9.7180    -9.7252  
    2.14000n   -9.6327    -9.7105    -9.7343    -9.7414  
    2.15000n   -9.6494    -9.7269    -9.7506    -9.7577  
    2.16000n   -9.6661    -9.7432    -9.7669    -9.7740  
    2.17000n   -9.6829    -9.7596    -9.7832    -9.7902  
    2.18000n   -9.6996    -9.7760    -9.7995    -9.8065  
    2.19000n   -9.7163    -9.7923    -9.8158    -9.8228  
    2.20000n   -9.7330    -9.8087    -9.8321    -9.8390  
    2.21000n   -9.7498    -9.8250    -9.8485    -9.8553  
    2.22000n   -9.7665    -9.8414    -9.8648    -9.8716  
    2.23000n   -9.7832    -9.8577    -9.8811    -9.8878  
    2.24000n   -9.7999    -9.8741    -9.8974    -9.9041  
    2.25000n   -9.8167    -9.8904    -9.9137    -9.9204  
    2.26000n   -9.8334    -9.9068    -9.9300    -9.9366  
    2.27000n   -9.8501    -9.9231    -9.9463    -9.9529  
    2.28000n   -9.8668    -9.9395    -9.9626    -9.9692  
    2.29000n   -9.8836    -9.9558    -9.9789    -9.9854  
    2.30000n   -9.9003    -9.9722    -9.9952   -10.0017  
    2.31000n   -9.9170    -9.9885   -10.0115   -10.0180  
    2.32000n   -9.9337   -10.0049   -10.0278   -10.0342  
    2.33000n   -9.9505   -10.0212   -10.0441   -10.0505  
    2.34000n   -9.9672   -10.0376   -10.0604   -10.0668  
    2.35000n   -9.9839   -10.0540   -10.0767   -10.0830  
    2.36000n  -10.0006   -10.0703   -10.0930   -10.0993  
    2.37000n  -10.0174   -10.0867   -10.1093   -10.1156  
    2.38000n  -10.0341   -10.1030   -10.1256   -10.1318  
    2.39000n  -10.0508   -10.1194   -10.1420   -10.1481  
    2.40000n  -10.0675   -10.1357   -10.1583   -10.1644  
    2.41000n  -10.0843   -10.1521   -10.1746   -10.1806  
    2.42000n  -10.1010   -10.1684   -10.1909   -10.1969  
    2.43000n  -10.1177   -10.1848   -10.2072   -10.2132  
    2.44000n  -10.1344   -10.2011   -10.2235   -10.2294  
    2.45000n  -10.1512   -10.2175   -10.2398   -10.2457  
    2.46000n  -10.1679   -10.2338   -10.2561   -10.2620  
    2.47000n  -10.1846   -10.2502   -10.2724   -10.2783  
    2.48000n  -10.2013   -10.2665   -10.2887   -10.2945  
    2.49000n  -10.2181   -10.2829   -10.3050   -10.3108  
    2.50000n  -10.2348   -10.2992   -10.3213   -10.3271  
    2.51000n  -10.2282   -10.2919   -10.3138   -10.3195  
    2.52000n  -10.2215   -10.2845   -10.3063   -10.3119  
    2.53000n  -10.2149   -10.2772   -10.2988   -10.3044  
    2.54000n  -10.2082   -10.2698   -10.2912   -10.2968  
    2.55000n  -10.2016   -10.2625   -10.2837   -10.2892  
    2.56000n  -10.1950   -10.2551   -10.2762   -10.2817  
    2.57000n  -10.1883   -10.2478   -10.2687   -10.2741  
    2.58000n  -10.1817   -10.2404   -10.2612   -10.2666  
    2.59000n  -10.1750   -10.2331   -10.2537   -10.2590  
    2.60000n  -10.1684   -10.2257   -10.2461   -10.2514  
    2.61000n  -10.1618   -10.2184   -10.2386   -10.2439  
    2.62000n  -10.1551   -10.2110   -10.2311   -10.2363  
    2.63000n  -10.1485   -10.2037   -10.2236   -10.2288  
    2.64000n  -10.1419   -10.1963   -10.2161   -10.2212  
    2.65000n  -10.1352   -10.1890   -10.2086   -10.2136  
    2.66000n  -10.1286   -10.1816   -10.2010   -10.2061  
    2.67000n  -10.1219   -10.1743   -10.1935   -10.1985  
    2.68000n  -10.1153   -10.1669   -10.1860   -10.1910  
    2.69000n  -10.1087   -10.1596   -10.1785   -10.1834  
    2.70000n  -10.1020   -10.1522   -10.1710   -10.1758  
    2.71000n  -10.0954   -10.1449   -10.1634   -10.1683  
    2.72000n  -10.0887   -10.1375   -10.1559   -10.1607  
    2.73000n  -10.0821   -10.1302   -10.1484   -10.1532  
    2.74000n  -10.0755   -10.1228   -10.1409   -10.1456  
    2.75000n  -10.0688   -10.1155   -10.1334   -10.1380  
    2.76000n  -10.0622   -10.1081   -10.1259   -10.1305  
    2.77000n  -10.0556   -10.1008   -10.1183   -10.1229  
    2.78000n  -10.0489   -10.0934   -10.1108   -10.1154  
    2.79000n  -10.0423   -10.0861   -10.1033   -10.1078  
    2.80000n  -10.0356   -10.0787   -10.0958   -10.1002  
    2.81000n  -10.0290   -10.0714   -10.0883   -10.0927  
    2.82000n  -10.0224   -10.0640   -10.0808   -10.0851  
    2.83000n  -10.0157   -10.0567   -10.0732   -10.0775  
    2.84000n  -10.0091   -10.0493   -10.0657   -10.0700  
    2.85000n  -10.0024   -10.0420   -10.0582   -10.0624  
    2.86000n   -9.9958   -10.0346   -10.0507   -10.0549  
    2.87000n   -9.9892   -10.0273   -10.0432   -10.0473  
    2.88000n   -9.9825   -10.0199   -10.0357   -10.0397  
    2.89000n   -9.9759   -10.0126   -10.0281   -10.0322  
    2.90000n   -9.9693   -10.0052   -10.0206   -10.0246  
    2.91000n   -9.9626    -9.9979   -10.0131   -10.0171  
    2.92000n   -9.9560    -9.9905   -10.0056   -10.0095  
    2.93000n   -9.9493    -9.9832    -9.9981   -10.0019  
    2.94000n   -9.9427    -9.9758    -9.9905    -9.9944  
    2.95000n   -9.9361    -9.9685    -9.9830    -9.9868  
    2.96000n   -9.9278    -9.9596    -9.9740    -9.9778  
    2.97000n   -9.9143    -9.9457    -9.9600    -9.9637  
    2.98000n   -9.9008    -9.9318    -9.9460    -9.9497  
    2.99000n   -9.8874    -9.9178    -9.9320    -9.9356  
    3.00000n   -9.8739    -9.9039    -9.9180    -9.9216  
    3.01000n   -9.8604    -9.8900    -9.9040    -9.9075  
    3.02000n   -9.8469    -9.8761    -9.8900    -9.8935  
    3.03000n   -9.8334    -9.8622    -9.8760    -9.8794  
    3.04000n   -9.8199    -9.8482    -9.8620    -9.8654  
    3.05000n   -9.8064    -9.8343    -9.8480    -9.8514  
    3.06000n   -9.7929    -9.8204    -9.8339    -9.8373  
    3.07000n   -9.7794    -9.8065    -9.8199    -9.8233  
    3.08000n   -9.7659    -9.7926    -9.8059    -9.8092  
    3.09000n   -9.7524    -9.7786    -9.7919    -9.7952  
    3.10000n   -9.7389    -9.7647    -9.7779    -9.7811  
    3.11000n   -9.7254    -9.7508    -9.7639    -9.7671  
    3.12000n   -9.7120    -9.7369    -9.7499    -9.7531  
    3.13000n   -9.6985    -9.7230    -9.7359    -9.7390  
    3.14000n   -9.6850    -9.7090    -9.7219    -9.7250  
    3.15000n   -9.6715    -9.6951    -9.7079    -9.7109  
    3.16000n   -9.6580    -9.6812    -9.6939    -9.6969  
    3.17000n   -9.6445    -9.6673    -9.6799    -9.6828  
    3.18000n   -9.6310    -9.6534    -9.6659    -9.6688  
    3.19000n   -9.6175    -9.6394    -9.6519    -9.6548  
    3.20000n   -9.6040    -9.6255    -9.6379    -9.6407  
    3.21000n   -9.5905    -9.6116    -9.6239    -9.6267  
    3.22000n   -9.5770    -9.5977    -9.6099    -9.6126  
    3.23000n   -9.5599    -9.5802    -9.5924    -9.5952  
    3.24000n   -9.5366    -9.5569    -9.5693    -9.5721  
    3.25000n   -9.5133    -9.5337    -9.5462    -9.5491  
    3.26000n   -9.4901    -9.5104    -9.5231    -9.5260  
    3.27000n   -9.4668    -9.4871    -9.5000    -9.5030  
    3.28000n   -9.4435    -9.4638    -9.4769    -9.4799  
    3.29000n   -9.4202    -9.4405    -9.4538    -9.4568  
    3.30000n   -9.3970    -9.4172    -9.4307    -9.4338  
    3.31000n   -9.3737    -9.3939    -9.4076    -9.4107  
    3.32000n   -9.3504    -9.3706    -9.3845    -9.3876  
    3.33000n   -9.3272    -9.3473    -9.3614    -9.3646  
    3.34000n   -9.3039    -9.3241    -9.3383    -9.3415  
    3.35000n   -9.2806    -9.3008    -9.3152    -9.3185  
    3.36000n   -9.2573    -9.2775    -9.2921    -9.2954  
    3.37000n   -9.2341    -9.2542    -9.2690    -9.2723  
    3.38000n   -9.2108    -9.2309    -9.2459    -9.2493  
    3.39000n   -9.1875    -9.2076    -9.2228    -9.2262  
    3.40000n   -9.1643    -9.1843    -9.1997    -9.2032  
    3.41000n   -9.1410    -9.1610    -9.1766    -9.1801  
    3.42000n   -9.1177    -9.1377    -9.1535    -9.1570  
    3.43000n   -9.0944    -9.1144    -9.1304    -9.1340  
    3.44000n   -9.0712    -9.0912    -9.1073    -9.1109  
    3.45000n   -9.0479    -9.0679    -9.0842    -9.0879  
    3.46000n   -9.0246    -9.0446    -9.0611    -9.0648  
    3.47000n   -9.0014    -9.0213    -9.0379    -9.0417  
    3.48000n   -8.9781    -8.9980    -9.0148    -9.0187  
    3.49000n   -8.9548    -8.9747    -8.9917    -8.9956  
    3.50000n   -8.9315    -8.9514    -8.9686    -8.9726  
    3.51000n   -8.8919    -8.9111    -8.9282    -8.9321  
    3.52000n   -8.8522    -8.8709    -8.8878    -8.8916  
    3.53000n   -8.8125    -8.8306    -8.8473    -8.8511  
    3.54000n   -8.7728    -8.7903    -8.8069    -8.8106  
    3.55000n   -8.7332    -8.7500    -8.7665    -8.7701  
    3.56000n   -8.6935    -8.7097    -8.7261    -8.7296  
    3.57000n   -8.6538    -8.6694    -8.6856    -8.6892  
    3.58000n   -8.6141    -8.6292    -8.6452    -8.6487  
    3.59000n   -8.5745    -8.5889    -8.6048    -8.6082  
    3.60000n   -8.5348    -8.5486    -8.5643    -8.5677  
    3.61000n   -8.4951    -8.5083    -8.5239    -8.5272  
    3.62000n   -8.4554    -8.4680    -8.4835    -8.4867  
    3.63000n   -8.4158    -8.4277    -8.4430    -8.4463  
    3.64000n   -8.3761    -8.3875    -8.4026    -8.4058  
    3.65000n   -8.3364    -8.3472    -8.3622    -8.3653  
    3.66000n   -8.2967    -8.3069    -8.3218    -8.3248  
    3.67000n   -8.2571    -8.2666    -8.2813    -8.2843  
    3.68000n   -8.2174    -8.2263    -8.2409    -8.2438  
    3.69000n   -8.1777    -8.1861    -8.2005    -8.2033  
    3.70000n   -8.1380    -8.1458    -8.1600    -8.1629  
    3.71000n   -8.0984    -8.1055    -8.1196    -8.1224  
    3.72000n   -8.0587    -8.0652    -8.0792    -8.0819  
    3.73000n   -8.0190    -8.0249    -8.0387    -8.0414  
    3.74000n   -7.9793    -7.9846    -7.9983    -8.0009  
    3.75000n   -7.9397    -7.9444    -7.9579    -7.9604  
    3.76000n   -7.9000    -7.9041    -7.9175    -7.9199  
    3.77000n   -7.8603    -7.8638    -7.8770    -7.8795  
    3.78000n   -7.8206    -7.8235    -7.8366    -7.8390  
    3.79000n   -7.7810    -7.7832    -7.7962    -7.7985  
    3.80000n   -7.7413    -7.7430    -7.7557    -7.7580  
    3.81000n   -7.7016    -7.7027    -7.7153    -7.7175  
    3.82000n   -7.6619    -7.6624    -7.6749    -7.6770  
    3.83000n   -7.6223    -7.6221    -7.6344    -7.6366  
    3.84000n   -7.5826    -7.5818    -7.5940    -7.5961  
    3.85000n   -7.5429    -7.5415    -7.5536    -7.5556  
    3.86000n   -7.5032    -7.5013    -7.5132    -7.5151  
    3.87000n   -7.4635    -7.4610    -7.4727    -7.4746  
    3.88000n   -7.4239    -7.4207    -7.4323    -7.4341  
    3.89000n   -7.3842    -7.3804    -7.3919    -7.3936  
    3.90000n   -7.3445    -7.3401    -7.3514    -7.3532  
    3.91000n   -7.3048    -7.2998    -7.3110    -7.3127  
    3.92000n   -7.2652    -7.2596    -7.2706    -7.2722  
    3.93000n   -7.2255    -7.2193    -7.2301    -7.2317  
    3.94000n   -7.1847    -7.1779    -7.1886    -7.1901  
    3.95000n   -7.1391    -7.1319    -7.1426    -7.1441  
    3.96000n   -7.0936    -7.0860    -7.0965    -7.0980  
    3.97000n   -7.0480    -7.0400    -7.0505    -7.0520  
    3.98000n   -7.0025    -6.9940    -7.0045    -7.0059  
    3.99000n   -6.9569    -6.9481    -6.9584    -6.9599  
    4.00000n   -6.9114    -6.9021    -6.9124    -6.9138  
    4.01000n   -6.8658    -6.8562    -6.8663    -6.8678  
    4.02000n   -6.8203    -6.8102    -6.8203    -6.8217  
    4.03000n   -6.7747    -6.7642    -6.7743    -6.7757  
    4.04000n   -6.7292    -6.7183    -6.7282    -6.7296  
    4.05000n   -6.6836    -6.6723    -6.6822    -6.6836  
    4.06000n   -6.6381    -6.6264    -6.6362    -6.6375  
    4.07000n   -6.5925    -6.5804    -6.5901    -6.5915  
    4.08000n   -6.5470    -6.5344    -6.5441    -6.5455  
    4.09000n   -6.5014    -6.4885    -6.4981    -6.4994  
    4.10000n   -6.4559    -6.4425    -6.4520    -6.4534  
    4.11000n   -6.4103    -6.3966    -6.4060    -6.4073  
    4.12000n   -6.3648    -6.3506    -6.3599    -6.3613  
    4.13000n   -6.3192    -6.3046    -6.3139    -6.3152  
    4.14000n   -6.2737    -6.2587    -6.2679    -6.2692  
    4.15000n   -6.2281    -6.2127    -6.2218    -6.2231  
    4.16000n   -6.1826    -6.1668    -6.1758    -6.1771  
    4.17000n   -6.1370    -6.1208    -6.1298    -6.1310  
    4.18000n   -6.0915    -6.0748    -6.0837    -6.0850  
    4.19000n   -6.0459    -6.0289    -6.0377    -6.0389  
    4.20000n   -6.0004    -5.9829    -5.9917    -5.9929  
    4.21000n   -5.9548    -5.9370    -5.9456    -5.9468  
    4.22000n   -5.9093    -5.8910    -5.8996    -5.9008  
    4.23000n   -5.8623    -5.8436    -5.8521    -5.8533  
    4.24000n   -5.8045    -5.7855    -5.7940    -5.7952  
    4.25000n   -5.7468    -5.7274    -5.7359    -5.7371  
    4.26000n   -5.6891    -5.6694    -5.6778    -5.6790  
    4.27000n   -5.6314    -5.6113    -5.6197    -5.6209  
    4.28000n   -5.5736    -5.5532    -5.5615    -5.5628  
    4.29000n   -5.5159    -5.4951    -5.5034    -5.5047  
    4.30000n   -5.4582    -5.4371    -5.4453    -5.4466  
    4.31000n   -5.4005    -5.3790    -5.3872    -5.3885  
    4.32000n   -5.3427    -5.3209    -5.3291    -5.3304  
    4.33000n   -5.2850    -5.2629    -5.2710    -5.2723  
    4.34000n   -5.2273    -5.2048    -5.2129    -5.2142  
    4.35000n   -5.1696    -5.1467    -5.1548    -5.1561  
    4.36000n   -5.1118    -5.0886    -5.0967    -5.0980  
    4.37000n   -5.0541    -5.0306    -5.0386    -5.0398  
    4.38000n   -4.9964    -4.9725    -4.9805    -4.9817  
    4.39000n   -4.9387    -4.9144    -4.9224    -4.9236  
    4.40000n   -4.8809    -4.8564    -4.8642    -4.8655  
    4.41000n   -4.8232    -4.7983    -4.8061    -4.8074  
    4.42000n   -4.7655    -4.7402    -4.7480    -4.7493  
    4.43000n   -4.7078    -4.6821    -4.6899    -4.6912  
    4.44000n   -4.6500    -4.6241    -4.6318    -4.6331  
    4.45000n   -4.5923    -4.5660    -4.5737    -4.5750  
    4.46000n   -4.5346    -4.5079    -4.5156    -4.5169  
    4.47000n   -4.4769    -4.4499    -4.4575    -4.4588  
    4.48000n   -4.4191    -4.3918    -4.3994    -4.4007  
    4.49000n   -4.3614    -4.3337    -4.3413    -4.3426  
    4.50000n   -4.3037    -4.2756    -4.2832    -4.2845  
    4.51000n   -4.2460    -4.2176    -4.2250    -4.2264  
    4.52000n   -4.1882    -4.1595    -4.1669    -4.1683  
    4.53000n   -4.1305    -4.1014    -4.1088    -4.1102  
    4.54000n   -4.0728    -4.0433    -4.0507    -4.0521  
    4.55000n   -4.0151    -3.9853    -3.9926    -3.9940  
    4.56000n   -3.9573    -3.9272    -3.9345    -3.9359  
    4.57000n   -3.8996    -3.8691    -3.8764    -3.8778  
    4.58000n   -3.8419    -3.8111    -3.8183    -3.8197  
    4.59000n   -3.7842    -3.7530    -3.7602    -3.7616  
    4.60000n   -3.7264    -3.6949    -3.7021    -3.7035  
    4.61000n   -3.6687    -3.6368    -3.6440    -3.6454  
    4.62000n   -3.6110    -3.5788    -3.5859    -3.5873  
    4.63000n   -3.5533    -3.5207    -3.5277    -3.5292  
    4.64000n   -3.4955    -3.4626    -3.4696    -3.4711  
    4.65000n   -3.4378    -3.4046    -3.4115    -3.4130  
    4.66000n   -3.3801    -3.3465    -3.3534    -3.3549  
    4.67000n   -3.3224    -3.2884    -3.2953    -3.2968  
    4.68000n   -3.2646    -3.2303    -3.2372    -3.2387  
    4.69000n   -3.2069    -3.1723    -3.1791    -3.1806  
    4.70000n   -3.1492    -3.1142    -3.1210    -3.1225  
    4.71000n   -3.0915    -3.0561    -3.0629    -3.0644  
    4.72000n   -3.0337    -2.9981    -3.0048    -3.0063  
    4.73000n   -2.9760    -2.9400    -2.9467    -2.9482  
    4.74000n   -2.9183    -2.8819    -2.8886    -2.8901  
    4.75000n   -2.8606    -2.8238    -2.8304    -2.8320  
    4.76000n   -2.8028    -2.7658    -2.7723    -2.7739  
    4.77000n   -2.7451    -2.7077    -2.7142    -2.7158  
    4.78000n   -2.6874    -2.6496    -2.6561    -2.6577  
    4.79000n   -2.6297    -2.5916    -2.5980    -2.5995  
    4.80000n   -2.5719    -2.5335    -2.5399    -2.5414  
    4.81000n   -2.5142    -2.4754    -2.4818    -2.4833  
    4.82000n   -2.4565    -2.4173    -2.4237    -2.4252  
    4.83000n   -2.3988    -2.3593    -2.3656    -2.3671  
    4.84000n   -2.3410    -2.3012    -2.3075    -2.3090  
    4.85000n   -2.2833    -2.2431    -2.2494    -2.2509  
    4.86000n   -2.2256    -2.1850    -2.1913    -2.1928  
    4.87000n   -2.1679    -2.1270    -2.1331    -2.1347  
    4.88000n   -2.1101    -2.0689    -2.0750    -2.0766  
    4.89000n   -2.0524    -2.0108    -2.0169    -2.0185  
    4.90000n   -1.9947    -1.9528    -1.9588    -1.9604  
    4.91000n   -1.9370    -1.8947    -1.9007    -1.9023  
    4.92000n   -1.8792    -1.8366    -1.8426    -1.8442  
    4.93000n   -1.8215    -1.7785    -1.7845    -1.7861  
    4.94000n   -1.7638    -1.7205    -1.7264    -1.7280  
    4.95000n   -1.7061    -1.6624    -1.6683    -1.6699  
    4.96000n   -1.6483    -1.6043    -1.6102    -1.6118  
    4.97000n   -1.5906    -1.5463    -1.5521    -1.5537  
    4.98000n   -1.5329    -1.4882    -1.4939    -1.4956  
    4.99000n   -1.4752    -1.4301    -1.4358    -1.4375  
    5.00000n   -1.4174    -1.3720    -1.3777    -1.3794  
    5.01000n   -1.3540    -1.3082    -1.3138    -1.3154  
    5.02000n   -1.2905    -1.2444    -1.2498    -1.2514  
    5.03000n   -1.2270    -1.1806    -1.1859    -1.1874  
    5.04000n   -1.1635    -1.1168    -1.1219    -1.1234  
    5.05000n   -1.1000    -1.0530    -1.0580    -1.0594  
    5.06000n   -1.0365  -989.2485m -994.0239m -995.3869m 
    5.07000n -973.0205m -925.4493m -930.0725m -931.3851m 
    5.08000n -909.5315m -861.6501m -866.1211m -867.3832m 
    5.09000n -846.0425m -797.8509m -802.1697m -803.3813m 
    5.10000n -782.5535m -734.0517m -738.2183m -739.3794m 
    5.11000n -719.0645m -670.2525m -674.2670m -675.3775m 
    5.12000n -655.5755m -606.4533m -610.3156m -611.3756m 
    5.13000n -592.0865m -542.6541m -546.3642m -547.3737m 
    5.14000n -528.5975m -478.8549m -482.4128m -483.3719m 
    5.15000n -465.1085m -415.0557m -418.4614m -419.3700m 
    5.16000n -401.6195m -351.2565m -354.5101m -355.3681m 
    5.17000n -338.1305m -287.4573m -290.5587m -291.3662m 
    5.18000n -274.6415m -223.6581m -226.6073m -227.3643m 
    5.19000n -211.1525m -159.8589m -162.6559m -163.3624m 
    5.20000n -147.6635m  -96.0597m  -98.7045m  -99.3605m 
    5.21000n  -84.1745m  -32.2605m  -34.7531m  -35.3587m 
    5.22000n  -20.6855m   31.5387m   29.1982m   28.6432m 
    5.23000n   42.8035m   95.3379m   93.1496m   92.6451m 
    5.24000n  106.2925m  159.1371m  157.1010m  156.6470m 
    5.25000n  169.7815m  222.9363m  221.0524m  220.6489m 
    5.26000n  233.2705m  286.7354m  285.0038m  284.6508m 
    5.27000n  296.7595m  350.5346m  348.9552m  348.6526m 
    5.28000n  360.2485m  414.3338m  412.9065m  412.6545m 
    5.29000n  423.7375m  478.1330m  476.8579m  476.6564m 
    5.30000n  487.2265m  541.9322m  540.8093m  540.6583m 
    5.31000n  550.7155m  605.7314m  604.7607m  604.6602m 
    5.32000n  614.2045m  669.5306m  668.7121m  668.6621m 
    5.33000n  677.6935m  733.3298m  732.6634m  732.6640m 
    5.34000n  741.1825m  797.1290m  796.6148m  796.6658m 
    5.35000n  804.6715m  860.9282m  860.5662m  860.6677m 
    5.36000n  868.1605m  924.7274m  924.5176m  924.6696m 
    5.37000n  931.6495m  988.5266m  988.4690m  988.6715m 
    5.38000n  995.1385m    1.0523     1.0524     1.0527  
    5.39000n    1.0586     1.1161     1.1164     1.1167  
    5.40000n    1.1221     1.1799     1.1803     1.1807  
    5.41000n    1.1856     1.2437     1.2443     1.2447  
    5.42000n    1.2491     1.3075     1.3082     1.3087  
    5.43000n    1.3126     1.3713     1.3722     1.3727  
    5.44000n    1.3761     1.4351     1.4361     1.4367  
    5.45000n    1.4396     1.4989     1.5001     1.5007  
    5.46000n    1.5031     1.5627     1.5640     1.5647  
    5.47000n    1.5665     1.6265     1.6280     1.6287  
    5.48000n    1.6300     1.6903     1.6919     1.6927  
    5.49000n    1.6935     1.7541     1.7559     1.7567  
    5.50000n    1.7570     1.8179     1.8198     1.8207  
    5.51000n    1.8205     1.8817     1.8838     1.8847  
    5.52000n    1.8840     1.9455     1.9477     1.9487  
    5.53000n    1.9475     2.0093     2.0117     2.0127  
    5.54000n    2.0110     2.0731     2.0756     2.0767  
    5.55000n    2.0745     2.1369     2.1396     2.1407  
    5.56000n    2.1379     2.2007     2.2035     2.2047  
    5.57000n    2.2014     2.2645     2.2675     2.2687  
    5.58000n    2.2649     2.3283     2.3314     2.3327  
    5.59000n    2.3284     2.3921     2.3954     2.3967  
    5.60000n    2.3919     2.4559     2.4594     2.4607  
    5.61000n    2.4554     2.5197     2.5233     2.5247  
    5.62000n    2.5189     2.5835     2.5873     2.5887  
    5.63000n    2.5824     2.6473     2.6512     2.6527  
    5.64000n    2.6459     2.7111     2.7152     2.7167  
    5.65000n    2.7093     2.7749     2.7791     2.7807  
    5.66000n    2.7722     2.8381     2.8425     2.8441  
    5.67000n    2.8303     2.8964     2.9010     2.9027  
    5.68000n    2.8883     2.9547     2.9594     2.9612  
    5.69000n    2.9464     3.0130     3.0179     3.0198  
    5.70000n    3.0044     3.0714     3.0764     3.0783  
    5.71000n    3.0625     3.1297     3.1349     3.1369  
    5.72000n    3.1205     3.1880     3.1934     3.1954  
    5.73000n    3.1786     3.2463     3.2519     3.2540  
    5.74000n    3.2366     3.3046     3.3104     3.3125  
    5.75000n    3.2947     3.3629     3.3689     3.3711  
    5.76000n    3.3527     3.4213     3.4274     3.4296  
    5.77000n    3.4108     3.4796     3.4859     3.4882  
    5.78000n    3.4688     3.5379     3.5444     3.5467  
    5.79000n    3.5269     3.5962     3.6029     3.6053  
    5.80000n    3.5849     3.6545     3.6614     3.6638  
    5.81000n    3.6430     3.7128     3.7199     3.7223  
    5.82000n    3.7010     3.7712     3.7784     3.7809  
    5.83000n    3.7591     3.8295     3.8369     3.8394  
    5.84000n    3.8171     3.8878     3.8954     3.8980  
    5.85000n    3.8752     3.9461     3.9539     3.9565  
    5.86000n    3.9332     4.0044     4.0124     4.0151  
    5.87000n    3.9913     4.0628     4.0709     4.0736  
    5.88000n    4.0493     4.1211     4.1294     4.1322  
    5.89000n    4.1074     4.1794     4.1878     4.1907  
    5.90000n    4.1654     4.2377     4.2463     4.2493  
    5.91000n    4.2235     4.2960     4.3048     4.3078  
    5.92000n    4.2815     4.3543     4.3633     4.3664  
    5.93000n    4.3395     4.4127     4.4218     4.4249  
    5.94000n    4.3976     4.4710     4.4803     4.4835  
    5.95000n    4.4556     4.5293     4.5388     4.5420  
    5.96000n    4.5137     4.5876     4.5973     4.6006  
    5.97000n    4.5717     4.6459     4.6558     4.6591  
    5.98000n    4.6298     4.7042     4.7143     4.7177  
    5.99000n    4.6878     4.7626     4.7728     4.7762  
    6.00000n    4.7459     4.8209     4.8313     4.8348  
    6.01000n    4.8039     4.8792     4.8898     4.8933  
    6.02000n    4.8620     4.9375     4.9483     4.9519  
    6.03000n    4.9200     4.9958     5.0068     5.0104  
    6.04000n    4.9781     5.0541     5.0653     5.0690  
    6.05000n    5.0361     5.1125     5.1238     5.1275  
    6.06000n    5.0942     5.1708     5.1823     5.1861  
    6.07000n    5.1522     5.2291     5.2408     5.2446  
    6.08000n    5.2103     5.2874     5.2993     5.3032  
    6.09000n    5.2683     5.3457     5.3578     5.3617  
    6.10000n    5.3264     5.4040     5.4162     5.4202  
    6.11000n    5.3844     5.4624     5.4747     5.4788  
    6.12000n    5.4425     5.5207     5.5332     5.5373  
    6.13000n    5.5005     5.5790     5.5917     5.5959  
    6.14000n    5.5586     5.6373     5.6502     5.6544  
    6.15000n    5.6166     5.6956     5.7087     5.7130  
    6.16000n    5.6747     5.7539     5.7672     5.7715  
    6.17000n    5.7327     5.8123     5.8257     5.8301  
    6.18000n    5.7908     5.8706     5.8842     5.8886  
    6.19000n    5.8488     5.9289     5.9427     5.9472  
    6.20000n    5.9069     5.9872     6.0012     6.0057  
    6.21000n    5.9649     6.0455     6.0597     6.0643  
    6.22000n    6.0230     6.1038     6.1182     6.1228  
    6.23000n    6.0810     6.1622     6.1767     6.1814  
    6.24000n    6.1391     6.2205     6.2352     6.2399  
    6.25000n    6.1902     6.2718     6.2866     6.2914  
    6.26000n    6.2394     6.3211     6.3361     6.3409  
    6.27000n    6.2886     6.3704     6.3855     6.3904  
    6.28000n    6.3377     6.4196     6.4350     6.4399  
    6.29000n    6.3869     6.4689     6.4844     6.4894  
    6.30000n    6.4361     6.5182     6.5339     6.5389  
    6.31000n    6.4853     6.5675     6.5833     6.5884  
    6.32000n    6.5344     6.6168     6.6328     6.6379  
    6.33000n    6.5836     6.6661     6.6822     6.6874  
    6.34000n    6.6328     6.7154     6.7317     6.7368  
    6.35000n    6.6820     6.7647     6.7811     6.7863  
    6.36000n    6.7311     6.8139     6.8306     6.8358  
    6.37000n    6.7803     6.8632     6.8800     6.8853  
    6.38000n    6.8295     6.9125     6.9295     6.9348  
    6.39000n    6.8787     6.9618     6.9789     6.9843  
    6.40000n    6.9278     7.0111     7.0284     7.0338  
    6.41000n    6.9770     7.0604     7.0778     7.0833  
    6.42000n    7.0262     7.1097     7.1273     7.1328  
    6.43000n    7.0754     7.1590     7.1767     7.1822  
    6.44000n    7.1245     7.2083     7.2262     7.2317  
    6.45000n    7.1737     7.2575     7.2756     7.2812  
    6.46000n    7.2229     7.3068     7.3251     7.3307  
    6.47000n    7.2721     7.3561     7.3745     7.3802  
    6.48000n    7.3212     7.4054     7.4240     7.4297  
    6.49000n    7.3704     7.4547     7.4734     7.4792  
    6.50000n    7.4196     7.5040     7.5229     7.5287  
    6.51000n    7.4541     7.5381     7.5569     7.5627  
    6.52000n    7.4887     7.5723     7.5910     7.5967  
    6.53000n    7.5232     7.6064     7.6250     7.6307  
    6.54000n    7.5578     7.6406     7.6591     7.6647  
    6.55000n    7.5923     7.6747     7.6932     7.6988  
    6.56000n    7.6269     7.7089     7.7272     7.7328  
    6.57000n    7.6614     7.7430     7.7613     7.7668  
    6.58000n    7.6960     7.7772     7.7953     7.8008  
    6.59000n    7.7305     7.8113     7.8294     7.8348  
    6.60000n    7.7651     7.8455     7.8635     7.8688  
    6.61000n    7.7996     7.8796     7.8975     7.9029  
    6.62000n    7.8342     7.9138     7.9316     7.9369  
    6.63000n    7.8687     7.9479     7.9657     7.9709  
    6.64000n    7.9032     7.9821     7.9997     8.0049  
    6.65000n    7.9378     8.0162     8.0338     8.0389  
    6.66000n    7.9723     8.0504     8.0678     8.0729  
    6.67000n    8.0069     8.0845     8.1019     8.1070  
    6.68000n    8.0414     8.1187     8.1360     8.1410  
    6.69000n    8.0760     8.1528     8.1700     8.1750  
    6.70000n    8.1105     8.1870     8.2041     8.2090  
    6.71000n    8.1451     8.2211     8.2381     8.2430  
    6.72000n    8.1796     8.2553     8.2722     8.2770  
    6.73000n    8.2142     8.2894     8.3063     8.3111  
    6.74000n    8.2487     8.3236     8.3403     8.3451  
    6.75000n    8.2833     8.3577     8.3744     8.3791  
    6.76000n    8.3178     8.3919     8.4084     8.4131  
    6.77000n    8.3523     8.4260     8.4425     8.4471  
    6.78000n    8.3869     8.4602     8.4766     8.4811  
    6.79000n    8.4214     8.4943     8.5106     8.5152  
    6.80000n    8.4560     8.5285     8.5447     8.5492  
    6.81000n    8.4905     8.5626     8.5788     8.5832  
    6.82000n    8.5251     8.5968     8.6128     8.6172  
    6.83000n    8.5596     8.6309     8.6469     8.6512  
    6.84000n    8.5942     8.6651     8.6809     8.6852  
    6.85000n    8.6287     8.6992     8.7150     8.7193  
    6.86000n    8.6633     8.7334     8.7491     8.7533  
    6.87000n    8.6978     8.7675     8.7831     8.7873  
    6.88000n    8.7324     8.8017     8.8172     8.8213  
    6.89000n    8.7669     8.8358     8.8512     8.8553  
    6.90000n    8.8014     8.8700     8.8853     8.8893  
    6.91000n    8.8360     8.9041     8.9194     8.9234  
    6.92000n    8.8650     8.9329     8.9481     8.9521  
    6.93000n    8.8922     8.9599     8.9752     8.9792  
    6.94000n    8.9194     8.9869     9.0023     9.0063  
    6.95000n    8.9466     9.0140     9.0294     9.0334  
    6.96000n    8.9737     9.0410     9.0565     9.0605  
    6.97000n    9.0009     9.0681     9.0835     9.0876  
    6.98000n    9.0281     9.0951     9.1106     9.1147  
    6.99000n    9.0553     9.1221     9.1377     9.1418  
    7.00000n    9.0825     9.1492     9.1648     9.1689  
    7.01000n    9.1097     9.1762     9.1919     9.1960  
    7.02000n    9.1369     9.2033     9.2190     9.2231  
    7.03000n    9.1641     9.2303     9.2460     9.2502  
    7.04000n    9.1913     9.2573     9.2731     9.2773  
    7.05000n    9.2185     9.2844     9.3002     9.3044  
    7.06000n    9.2457     9.3114     9.3273     9.3315  
    7.07000n    9.2729     9.3385     9.3544     9.3586  
    7.08000n    9.3001     9.3655     9.3815     9.3857  
    7.09000n    9.3273     9.3926     9.4085     9.4127  
    7.10000n    9.3545     9.4196     9.4356     9.4398  
    7.11000n    9.3817     9.4466     9.4627     9.4669  
    7.12000n    9.4089     9.4737     9.4898     9.4940  
    7.13000n    9.4360     9.5007     9.5169     9.5211  
    7.14000n    9.4632     9.5278     9.5439     9.5482  
    7.15000n    9.4904     9.5548     9.5710     9.5753  
    7.16000n    9.5176     9.5818     9.5981     9.6024  
    7.17000n    9.5448     9.6089     9.6252     9.6295  
    7.18000n    9.5720     9.6359     9.6523     9.6566  
    7.19000n    9.5992     9.6630     9.6794     9.6837  
    7.20000n    9.6264     9.6900     9.7064     9.7108  
    7.21000n    9.6536     9.7170     9.7335     9.7379  
    7.22000n    9.6808     9.7441     9.7606     9.7650  
    7.23000n    9.6973     9.7606     9.7774     9.7818  
    7.24000n    9.7129     9.7763     9.7933     9.7978  
    7.25000n    9.7286     9.7920     9.8092     9.8138  
    7.26000n    9.7442     9.8077     9.8251     9.8299  
    7.27000n    9.7598     9.8233     9.8410     9.8459  
    7.28000n    9.7755     9.8390     9.8570     9.8619  
    7.29000n    9.7911     9.8547     9.8729     9.8779  
    7.30000n    9.8067     9.8704     9.8888     9.8939  
    7.31000n    9.8224     9.8861     9.9047     9.9099  
    7.32000n    9.8380     9.9018     9.9207     9.9259  
    7.33000n    9.8536     9.9175     9.9366     9.9419  
    7.34000n    9.8693     9.9332     9.9525     9.9580  
    7.35000n    9.8849     9.9488     9.9684     9.9740  
    7.36000n    9.9005     9.9645     9.9843     9.9900  
    7.37000n    9.9162     9.9802    10.0003    10.0060  
    7.38000n    9.9318     9.9959    10.0162    10.0220  
    7.39000n    9.9474    10.0116    10.0321    10.0380  
    7.40000n    9.9631    10.0273    10.0480    10.0540  
    7.41000n    9.9787    10.0430    10.0640    10.0700  
    7.42000n    9.9944    10.0586    10.0799    10.0860  
    7.43000n   10.0100    10.0743    10.0958    10.1021  
    7.44000n   10.0256    10.0900    10.1117    10.1181  
    7.45000n   10.0413    10.1057    10.1277    10.1341  
    7.46000n   10.0569    10.1214    10.1436    10.1501  
    7.47000n   10.0725    10.1371    10.1595    10.1661  
    7.48000n   10.0882    10.1528    10.1754    10.1821  
    7.49000n   10.1038    10.1684    10.1913    10.1981  
    7.50000n   10.1194    10.1841    10.2073    10.2141  
    7.51000n   10.1154    10.1795    10.2024    10.2092  
    7.52000n   10.1114    10.1748    10.1976    10.2043  
    7.53000n   10.1073    10.1701    10.1928    10.1994  
    7.54000n   10.1033    10.1654    10.1879    10.1945  
    7.55000n   10.0993    10.1608    10.1831    10.1896  
    7.56000n   10.0952    10.1561    10.1782    10.1847  
    7.57000n   10.0912    10.1514    10.1734    10.1798  
    7.58000n   10.0871    10.1467    10.1686    10.1749  
    7.59000n   10.0831    10.1421    10.1637    10.1699  
    7.60000n   10.0791    10.1374    10.1589    10.1650  
    7.61000n   10.0750    10.1327    10.1540    10.1601  
    7.62000n   10.0710    10.1280    10.1492    10.1552  
    7.63000n   10.0670    10.1234    10.1444    10.1503  
    7.64000n   10.0629    10.1187    10.1395    10.1454  
    7.65000n   10.0589    10.1140    10.1347    10.1405  
    7.66000n   10.0549    10.1093    10.1299    10.1356  
    7.67000n   10.0508    10.1047    10.1250    10.1307  
    7.68000n   10.0468    10.1000    10.1202    10.1257  
    7.69000n   10.0428    10.0953    10.1153    10.1208  
    7.70000n   10.0387    10.0907    10.1105    10.1159  
    7.71000n   10.0347    10.0860    10.1057    10.1110  
    7.72000n   10.0306    10.0813    10.1008    10.1061  
    7.73000n   10.0266    10.0766    10.0960    10.1012  
    7.74000n   10.0226    10.0720    10.0912    10.0963  
    7.75000n   10.0185    10.0673    10.0863    10.0914  
    7.76000n   10.0145    10.0626    10.0815    10.0865  
    7.77000n   10.0105    10.0579    10.0766    10.0815  
    7.78000n   10.0064    10.0533    10.0718    10.0766  
    7.79000n   10.0024    10.0486    10.0670    10.0717  
    7.80000n    9.9984    10.0439    10.0621    10.0668  
    7.81000n    9.9943    10.0392    10.0573    10.0619  
    7.82000n    9.9903    10.0346    10.0524    10.0570  
    7.83000n    9.9863    10.0299    10.0476    10.0521  
    7.84000n    9.9822    10.0252    10.0428    10.0472  
    7.85000n    9.9782    10.0205    10.0379    10.0423  
    7.86000n    9.9742    10.0159    10.0331    10.0373  
    7.87000n    9.9701    10.0112    10.0283    10.0324  
    7.88000n    9.9661    10.0065    10.0234    10.0275  
    7.89000n    9.9620    10.0019    10.0186    10.0226  
    7.90000n    9.9580     9.9972    10.0137    10.0177  
    7.91000n    9.9540     9.9925    10.0089    10.0128  
    7.92000n    9.9499     9.9878    10.0041    10.0079  
    7.93000n    9.9459     9.9832     9.9992    10.0030  
    7.94000n    9.9419     9.9785     9.9944     9.9981  
    7.95000n    9.9355     9.9715     9.9873     9.9909  
    7.96000n    9.9240     9.9597     9.9754     9.9790  
    7.97000n    9.9125     9.9479     9.9636     9.9672  
    7.98000n    9.9011     9.9361     9.9517     9.9553  
    7.99000n    9.8896     9.9242     9.9399     9.9434  
    8.00000n    9.8781     9.9124     9.9280     9.9316  
    8.01000n    9.8666     9.9006     9.9161     9.9197  
    8.02000n    9.8552     9.8888     9.9043     9.9078  
    8.03000n    9.8437     9.8769     9.8924     9.8959  
    8.04000n    9.8322     9.8651     9.8805     9.8841  
    8.05000n    9.8208     9.8533     9.8687     9.8722  
    8.06000n    9.8093     9.8415     9.8568     9.8603  
    8.07000n    9.7978     9.8297     9.8450     9.8484  
    8.08000n    9.7864     9.8178     9.8331     9.8366  
    8.09000n    9.7749     9.8060     9.8212     9.8247  
    8.10000n    9.7634     9.7942     9.8094     9.8128  
    8.11000n    9.7520     9.7824     9.7975     9.8009  
    8.12000n    9.7405     9.7705     9.7857     9.7891  
    8.13000n    9.7290     9.7587     9.7738     9.7772  
    8.14000n    9.7175     9.7469     9.7619     9.7653  
    8.15000n    9.7061     9.7351     9.7501     9.7534  
    8.16000n    9.6946     9.7232     9.7382     9.7416  
    8.17000n    9.6831     9.7114     9.7263     9.7297  
    8.18000n    9.6717     9.6996     9.7145     9.7178  
    8.19000n    9.6602     9.6878     9.7026     9.7059  
    8.20000n    9.6487     9.6760     9.6908     9.6941  
    8.21000n    9.6373     9.6641     9.6789     9.6822  
    8.22000n    9.6173     9.6440     9.6589     9.6623  
    8.23000n    9.5943     9.6210     9.6362     9.6396  
    8.24000n    9.5714     9.5981     9.6134     9.6170  
    8.25000n    9.5485     9.5751     9.5907     9.5943  
    8.26000n    9.5256     9.5522     9.5679     9.5717  
    8.27000n    9.5027     9.5292     9.5452     9.5490  
    8.28000n    9.4798     9.5062     9.5224     9.5263  
    8.29000n    9.4569     9.4833     9.4997     9.5037  
    8.30000n    9.4340     9.4603     9.4769     9.4810  
    8.31000n    9.4111     9.4374     9.4542     9.4584  
    8.32000n    9.3882     9.4144     9.4314     9.4357  
    8.33000n    9.3653     9.3915     9.4087     9.4131  
    8.34000n    9.3424     9.3685     9.3859     9.3904  
    8.35000n    9.3195     9.3455     9.3632     9.3678  
    8.36000n    9.2966     9.3226     9.3404     9.3451  
    8.37000n    9.2737     9.2996     9.3177     9.3225  
    8.38000n    9.2507     9.2767     9.2949     9.2998  
    8.39000n    9.2278     9.2537     9.2722     9.2772  
    8.40000n    9.2049     9.2308     9.2494     9.2545  
    8.41000n    9.1820     9.2078     9.2267     9.2318  
    8.42000n    9.1591     9.1848     9.2040     9.2092  
    8.43000n    9.1362     9.1619     9.1812     9.1865  
    8.44000n    9.1133     9.1389     9.1585     9.1639  
    8.45000n    9.0904     9.1160     9.1357     9.1412  
    8.46000n    9.0675     9.0930     9.1130     9.1186  
    8.47000n    9.0446     9.0701     9.0902     9.0959  
    8.48000n    9.0217     9.0471     9.0675     9.0733  
    8.49000n    8.9988     9.0241     9.0447     9.0506  
    8.50000n    8.9759     9.0012     9.0220     9.0280  
    8.51000n    8.9352     8.9599     8.9805     8.9864  
    8.52000n    8.8946     8.9185     8.9389     8.9448  
    8.53000n    8.8540     8.8772     8.8974     8.9032  
    8.54000n    8.8134     8.8359     8.8559     8.8616  
    8.55000n    8.7727     8.7946     8.8144     8.8200  
    8.56000n    8.7321     8.7533     8.7729     8.7784  
[...]
   26.92000n    9.1154     9.1153     9.1147     9.1022  
   26.93000n    9.1367     9.1365     9.1359     9.1236  
   26.94000n    9.1579     9.1577     9.1572     9.1451  
   26.95000n    9.1791     9.1789     9.1785     9.1665  
   26.96000n    9.2003     9.2002     9.1997     9.1880  
   26.97000n    9.2215     9.2214     9.2210     9.2094  
   26.98000n    9.2427     9.2426     9.2423     9.2309  
   26.99000n    9.2640     9.2638     9.2635     9.2524  
   27.00000n    9.2852     9.2851     9.2848     9.2738  
   27.01000n    9.3064     9.3063     9.3060     9.2953  
   27.02000n    9.3276     9.3275     9.3273     9.3167  
   27.03000n    9.3488     9.3488     9.3486     9.3382  
   27.04000n    9.3700     9.3700     9.3698     9.3596  
   27.05000n    9.3913     9.3912     9.3911     9.3811  
   27.06000n    9.4125     9.4124     9.4123     9.4026  
   27.07000n    9.4337     9.4337     9.4336     9.4240  
   27.08000n    9.4549     9.4549     9.4549     9.4455  
   27.09000n    9.4761     9.4761     9.4761     9.4669  
   27.10000n    9.4973     9.4973     9.4974     9.4884  
   27.11000n    9.5185     9.5186     9.5187     9.5098  
   27.12000n    9.5398     9.5398     9.5399     9.5313  
   27.13000n    9.5610     9.5610     9.5612     9.5528  
   27.14000n    9.5822     9.5822     9.5824     9.5742  
   27.15000n    9.6034     9.6035     9.6037     9.5957  
   27.16000n    9.6246     9.6247     9.6250     9.6171  
   27.17000n    9.6458     9.6459     9.6462     9.6386  
   27.18000n    9.6671     9.6672     9.6675     9.6600  
   27.19000n    9.6761     9.6762     9.6765     9.6691  
   27.20000n    9.6848     9.6849     9.6853     9.6780  
   27.21000n    9.6936     9.6937     9.6941     9.6869  
   27.22000n    9.7024     9.7025     9.7028     9.6957  
   27.23000n    9.7112     9.7113     9.7116     9.7046  
   27.24000n    9.7200     9.7201     9.7204     9.7135  
   27.25000n    9.7287     9.7288     9.7292     9.7223  
   27.26000n    9.7375     9.7376     9.7380     9.7312  
   27.27000n    9.7463     9.7464     9.7467     9.7400  
   27.28000n    9.7551     9.7552     9.7555     9.7489  
   27.29000n    9.7639     9.7640     9.7643     9.7578  
   27.30000n    9.7726     9.7727     9.7731     9.7666  
   27.31000n    9.7814     9.7815     9.7819     9.7755  
   27.32000n    9.7902     9.7903     9.7906     9.7844  
   27.33000n    9.7990     9.7991     9.7994     9.7932  
   27.34000n    9.8077     9.8078     9.8082     9.8021  
   27.35000n    9.8165     9.8166     9.8170     9.8110  
   27.36000n    9.8253     9.8254     9.8257     9.8198  
   27.37000n    9.8341     9.8342     9.8345     9.8287  
   27.38000n    9.8429     9.8430     9.8433     9.8375  
   27.39000n    9.8516     9.8517     9.8521     9.8464  
   27.40000n    9.8604     9.8605     9.8609     9.8553  
   27.41000n    9.8692     9.8693     9.8696     9.8641  
   27.42000n    9.8780     9.8781     9.8784     9.8730  
   27.43000n    9.8867     9.8869     9.8872     9.8819  
   27.44000n    9.8955     9.8956     9.8960     9.8907  
   27.45000n    9.9043     9.9044     9.9048     9.8996  
   27.46000n    9.9131     9.9132     9.9135     9.9084  
   27.47000n    9.9219     9.9220     9.9223     9.9173  
   27.48000n    9.9306     9.9307     9.9311     9.9262  
   27.49000n    9.9394     9.9395     9.9399     9.9350  
   27.50000n    9.9482     9.9483     9.9487     9.9439  
   27.51000n    9.9402     9.9403     9.9406     9.9359  
   27.52000n    9.9322     9.9323     9.9326     9.9280  
   27.53000n    9.9242     9.9243     9.9246     9.9200  
   27.54000n    9.9162     9.9163     9.9165     9.9121  
   27.55000n    9.9082     9.9082     9.9085     9.9041  
   27.56000n    9.9002     9.9002     9.9005     9.8962  
   27.57000n    9.8922     9.8922     9.8925     9.8882  
   27.58000n    9.8842     9.8842     9.8844     9.8802  
   27.59000n    9.8761     9.8762     9.8764     9.8723  
   27.60000n    9.8681     9.8682     9.8684     9.8643  
   27.61000n    9.8601     9.8602     9.8604     9.8564  
   27.62000n    9.8521     9.8522     9.8523     9.8484  
   27.63000n    9.8441     9.8442     9.8443     9.8405  
   27.64000n    9.8361     9.8362     9.8363     9.8325  
   27.65000n    9.8281     9.8281     9.8283     9.8245  
   27.66000n    9.8201     9.8201     9.8202     9.8166  
   27.67000n    9.8121     9.8121     9.8122     9.8086  
   27.68000n    9.8041     9.8041     9.8042     9.8007  
   27.69000n    9.7961     9.7961     9.7962     9.7927  
   27.70000n    9.7881     9.7881     9.7881     9.7848  
   27.71000n    9.7801     9.7801     9.7801     9.7768  
   27.72000n    9.7721     9.7721     9.7721     9.7689  
   27.73000n    9.7641     9.7641     9.7641     9.7609  
   27.74000n    9.7561     9.7560     9.7560     9.7529  
   27.75000n    9.7481     9.7480     9.7480     9.7450  
   27.76000n    9.7401     9.7400     9.7400     9.7370  
   27.77000n    9.7320     9.7320     9.7320     9.7291  
   27.78000n    9.7240     9.7240     9.7239     9.7211  
   27.79000n    9.7160     9.7160     9.7159     9.7132  
   27.80000n    9.7080     9.7080     9.7079     9.7052  
   27.81000n    9.7000     9.7000     9.6999     9.6972  
   27.82000n    9.6920     9.6920     9.6918     9.6893  
   27.83000n    9.6840     9.6839     9.6838     9.6813  
   27.84000n    9.6760     9.6759     9.6758     9.6734  
   27.85000n    9.6680     9.6679     9.6678     9.6654  
   27.86000n    9.6600     9.6599     9.6597     9.6575  
   27.87000n    9.6520     9.6519     9.6517     9.6495  
   27.88000n    9.6440     9.6439     9.6437     9.6415  
   27.89000n    9.6360     9.6359     9.6356     9.6336  
   27.90000n    9.6280     9.6279     9.6276     9.6256  
   27.91000n    9.6200     9.6199     9.6196     9.6177  
   27.92000n    9.6120     9.6118     9.6116     9.6097  
   27.93000n    9.6040     9.6038     9.6035     9.6018  
   27.94000n    9.5960     9.5958     9.5955     9.5938  
   27.95000n    9.5880     9.5878     9.5875     9.5858  
   27.96000n    9.5799     9.5798     9.5795     9.5779  
   27.97000n    9.5719     9.5718     9.5714     9.5699  
   27.98000n    9.5639     9.5638     9.5634     9.5620  
   27.99000n    9.5559     9.5558     9.5554     9.5540  
   28.00000n    9.5479     9.5478     9.5474     9.5461  
   28.01000n    9.5267     9.5265     9.5262     9.5252  
   28.02000n    9.5054     9.5053     9.5050     9.5043  
   28.03000n    9.4841     9.4840     9.4838     9.4834  
   28.04000n    9.4629     9.4628     9.4626     9.4625  
   28.05000n    9.4416     9.4415     9.4415     9.4416  
   28.06000n    9.4204     9.4203     9.4203     9.4207  
   28.07000n    9.3991     9.3991     9.3991     9.3998  
   28.08000n    9.3778     9.3778     9.3779     9.3790  
   28.09000n    9.3566     9.3566     9.3567     9.3581  
   28.10000n    9.3353     9.3353     9.3356     9.3372  
   28.11000n    9.3141     9.3141     9.3144     9.3163  
   28.12000n    9.2928     9.2929     9.2932     9.2954  
   28.13000n    9.2715     9.2716     9.2720     9.2745  
   28.14000n    9.2503     9.2504     9.2508     9.2536  
   28.15000n    9.2290     9.2291     9.2296     9.2327  
   28.16000n    9.2078     9.2079     9.2085     9.2118  
   28.17000n    9.1865     9.1866     9.1873     9.1910  
   28.18000n    9.1652     9.1654     9.1661     9.1701  
   28.19000n    9.1440     9.1442     9.1449     9.1492  
   28.20000n    9.1227     9.1229     9.1237     9.1283  
   28.21000n    9.1014     9.1017     9.1026     9.1074  
   28.22000n    9.0802     9.0804     9.0814     9.0865  
   28.23000n    9.0589     9.0592     9.0602     9.0656  
   28.24000n    9.0377     9.0380     9.0390     9.0447  
   28.25000n    9.0164     9.0167     9.0178     9.0239  
   28.26000n    8.9945     8.9948     8.9960     9.0023  
   28.27000n    8.9640     8.9643     8.9655     8.9719  
   28.28000n    8.9336     8.9339     8.9351     8.9415  
   28.29000n    8.9031     8.9034     8.9046     8.9111  
   28.30000n    8.8726     8.8730     8.8742     8.8807  
   28.31000n    8.8422     8.8425     8.8437     8.8503  
   28.32000n    8.8117     8.8121     8.8133     8.8200  
   28.33000n    8.7813     8.7816     8.7828     8.7896  
   28.34000n    8.7508     8.7512     8.7524     8.7592  
   28.35000n    8.7204     8.7207     8.7219     8.7288  
   28.36000n    8.6899     8.6902     8.6915     8.6984  
   28.37000n    8.6594     8.6598     8.6610     8.6680  
   28.38000n    8.6290     8.6293     8.6305     8.6376  
   28.39000n    8.5985     8.5989     8.6001     8.6073  
   28.40000n    8.5681     8.5684     8.5696     8.5769  
   28.41000n    8.5376     8.5380     8.5392     8.5465  
   28.42000n    8.5072     8.5075     8.5087     8.5161  
   28.43000n    8.4767     8.4771     8.4783     8.4857  
   28.44000n    8.4462     8.4466     8.4478     8.4553  
   28.45000n    8.4158     8.4161     8.4174     8.4249  
   28.46000n    8.3853     8.3857     8.3869     8.3946  
   28.47000n    8.3549     8.3552     8.3565     8.3642  
   28.48000n    8.3244     8.3248     8.3260     8.3338  
   28.49000n    8.2940     8.2943     8.2956     8.3034  
   28.50000n    8.2635     8.2639     8.2651     8.2730  
   28.51000n    8.2226     8.2229     8.2241     8.2321  
   28.52000n    8.1816     8.1820     8.1831     8.1911  
   28.53000n    8.1407     8.1410     8.1422     8.1502  
   28.54000n    8.0997     8.1001     8.1012     8.1093  
   28.55000n    8.0588     8.0591     8.0602     8.0683  
   28.56000n    8.0179     8.0182     8.0192     8.0274  
   28.57000n    7.9769     7.9772     7.9783     7.9865  
   28.58000n    7.9360     7.9363     7.9373     7.9455  
   28.59000n    7.8951     7.8953     7.8963     7.9046  
   28.60000n    7.8541     7.8544     7.8553     7.8637  
   28.61000n    7.8132     7.8134     7.8143     7.8227  
   28.62000n    7.7723     7.7725     7.7734     7.7818  
   28.63000n    7.7313     7.7315     7.7324     7.7409  
   28.64000n    7.6904     7.6906     7.6914     7.6999  
   28.65000n    7.6494     7.6496     7.6504     7.6590  
   28.66000n    7.6085     7.6087     7.6095     7.6181  
   28.67000n    7.5676     7.5678     7.5685     7.5771  
   28.68000n    7.5266     7.5268     7.5275     7.5362  
   28.69000n    7.4857     7.4859     7.4865     7.4952  
   28.70000n    7.4448     7.4449     7.4456     7.4543  
   28.71000n    7.4038     7.4040     7.4046     7.4134  
   28.72000n    7.3629     7.3630     7.3636     7.3724  
   28.73000n    7.3219     7.3221     7.3226     7.3315  
   28.74000n    7.2810     7.2811     7.2816     7.2906  
   28.75000n    7.2401     7.2402     7.2407     7.2496  
   28.76000n    7.1991     7.1992     7.1997     7.2087  
   28.77000n    7.1582     7.1583     7.1587     7.1678  
   28.78000n    7.1173     7.1173     7.1177     7.1268  
   28.79000n    7.0763     7.0764     7.0768     7.0859  
   28.80000n    7.0354     7.0354     7.0358     7.0450  
   28.81000n    6.9945     6.9945     6.9948     7.0040  
   28.82000n    6.9535     6.9535     6.9538     6.9631  
   28.83000n    6.9126     6.9126     6.9128     6.9222  
   28.84000n    6.8716     6.8716     6.8719     6.8812  
   28.85000n    6.8307     6.8307     6.8309     6.8403  
   28.86000n    6.7898     6.7897     6.7899     6.7994  
   28.87000n    6.7488     6.7488     6.7489     6.7584  
   28.88000n    6.7079     6.7079     6.7080     6.7175  
   28.89000n    6.6629     6.6629     6.6630     6.6726  
   28.90000n    6.6136     6.6136     6.6137     6.6235  
   28.91000n    6.5643     6.5643     6.5644     6.5744  
   28.92000n    6.5150     6.5149     6.5151     6.5252  
   28.93000n    6.4657     6.4656     6.4658     6.4761  
   28.94000n    6.4164     6.4163     6.4165     6.4270  
   28.95000n    6.3670     6.3670     6.3672     6.3779  
   28.96000n    6.3177     6.3177     6.3180     6.3288  
   28.97000n    6.2684     6.2684     6.2687     6.2797  
   28.98000n    6.2191     6.2191     6.2194     6.2306  
   28.99000n    6.1698     6.1698     6.1701     6.1815  
   29.00000n    6.1205     6.1205     6.1208     6.1323  
   29.01000n    6.0712     6.0712     6.0715     6.0832  
   29.02000n    6.0219     6.0219     6.0222     6.0341  
   29.03000n    5.9726     5.9726     5.9730     5.9850  
   29.04000n    5.9233     5.9233     5.9237     5.9359  
   29.05000n    5.8740     5.8740     5.8744     5.8868  
   29.06000n    5.8247     5.8247     5.8251     5.8377  
   29.07000n    5.7753     5.7754     5.7758     5.7886  
   29.08000n    5.7260     5.7261     5.7265     5.7394  
   29.09000n    5.6767     5.6768     5.6772     5.6903  
   29.10000n    5.6274     5.6275     5.6280     5.6412  
   29.11000n    5.5781     5.5782     5.5787     5.5921  
   29.12000n    5.5288     5.5289     5.5294     5.5430  
   29.13000n    5.4795     5.4796     5.4801     5.4939  
   29.14000n    5.4302     5.4303     5.4308     5.4448  
   29.15000n    5.3809     5.3810     5.3815     5.3957  
   29.16000n    5.3316     5.3317     5.3322     5.3465  
   29.17000n    5.2823     5.2824     5.2830     5.2974  
   29.18000n    5.2289     5.2290     5.2296     5.2442  
   29.19000n    5.1700     5.1701     5.1707     5.1854  
   29.20000n    5.1111     5.1112     5.1118     5.1265  
   29.21000n    5.0522     5.0523     5.0529     5.0677  
   29.22000n    4.9933     4.9934     4.9940     5.0088  
   29.23000n    4.9344     4.9345     4.9351     4.9499  
   29.24000n    4.8755     4.8756     4.8762     4.8911  
   29.25000n    4.8166     4.8167     4.8173     4.8322  
   29.26000n    4.7577     4.7578     4.7584     4.7734  
   29.27000n    4.6988     4.6989     4.6995     4.7145  
   29.28000n    4.6398     4.6400     4.6406     4.6557  
   29.29000n    4.5809     4.5811     4.5817     4.5968  
   29.30000n    4.5220     4.5222     4.5227     4.5380  
   29.31000n    4.4631     4.4633     4.4638     4.4791  
   29.32000n    4.4042     4.4043     4.4049     4.4203  
   29.33000n    4.3453     4.3454     4.3460     4.3614  
   29.34000n    4.2864     4.2865     4.2871     4.3026  
   29.35000n    4.2275     4.2276     4.2282     4.2437  
   29.36000n    4.1686     4.1687     4.1693     4.1849  
   29.37000n    4.1097     4.1098     4.1104     4.1260  
   29.38000n    4.0508     4.0509     4.0515     4.0672  
   29.39000n    3.9919     3.9920     3.9926     4.0083  
   29.40000n    3.9330     3.9331     3.9337     3.9495  
   29.41000n    3.8741     3.8742     3.8748     3.8906  
   29.42000n    3.8152     3.8153     3.8159     3.8318  
   29.43000n    3.7563     3.7564     3.7570     3.7729  
   29.44000n    3.6974     3.6975     3.6981     3.7141  
   29.45000n    3.6385     3.6386     3.6392     3.6552  
   29.46000n    3.5796     3.5797     3.5803     3.5963  
   29.47000n    3.5207     3.5208     3.5214     3.5375  
   29.48000n    3.4618     3.4619     3.4625     3.4786  
   29.49000n    3.4028     3.4030     3.4036     3.4198  
   29.50000n    3.3439     3.3441     3.3447     3.3609  
   29.51000n    3.2850     3.2852     3.2857     3.3021  
   29.52000n    3.2261     3.2263     3.2268     3.2432  
   29.53000n    3.1672     3.1674     3.1679     3.1844  
   29.54000n    3.1083     3.1085     3.1090     3.1255  
   29.55000n    3.0494     3.0496     3.0501     3.0667  
   29.56000n    2.9905     2.9906     2.9912     3.0078  
   29.57000n    2.9316     2.9317     2.9323     2.9490  
   29.58000n    2.8727     2.8728     2.8734     2.8901  
   29.59000n    2.8138     2.8139     2.8145     2.8313  
   29.60000n    2.7549     2.7550     2.7556     2.7724  
   29.61000n    2.6960     2.6961     2.6967     2.7136  
   29.62000n    2.6371     2.6372     2.6378     2.6547  
   29.63000n    2.5782     2.5783     2.5789     2.5959  
   29.64000n    2.5193     2.5194     2.5200     2.5370  
   29.65000n    2.4604     2.4605     2.4611     2.4782  
   29.66000n    2.4015     2.4016     2.4022     2.4193  
   29.67000n    2.3426     2.3427     2.3433     2.3605  
   29.68000n    2.2837     2.2838     2.2844     2.3016  
   29.69000n    2.2248     2.2249     2.2255     2.2427  
   29.70000n    2.1659     2.1660     2.1666     2.1839  
   29.71000n    2.1069     2.1071     2.1077     2.1250  
   29.72000n    2.0480     2.0482     2.0487     2.0662  
   29.73000n    1.9891     1.9893     1.9898     2.0073  
   29.74000n    1.9302     1.9304     1.9309     1.9485  
   29.75000n    1.8713     1.8715     1.8720     1.8896  
   29.76000n    1.8124     1.8126     1.8131     1.8308  
   29.77000n    1.7535     1.7537     1.7542     1.7719  
   29.78000n    1.6946     1.6948     1.6953     1.7131  
   29.79000n    1.6357     1.6358     1.6364     1.6542  
   29.80000n    1.5768     1.5769     1.5775     1.5954  
   29.81000n    1.5179     1.5180     1.5186     1.5365  
   29.82000n    1.4590     1.4591     1.4597     1.4777  
   29.83000n    1.4001     1.4002     1.4008     1.4188  
   29.84000n    1.3412     1.3413     1.3419     1.3600  
   29.85000n    1.2823     1.2824     1.2830     1.3011  
   29.86000n    1.2234     1.2235     1.2241     1.2423  
   29.87000n    1.1645     1.1646     1.1652     1.1834  
   29.88000n    1.1056     1.1057     1.1063     1.1246  
   29.89000n    1.0467     1.0468     1.0474     1.0657  
   29.90000n  987.7557m  987.8983m  988.4580m    1.0069  
   29.91000n  928.8509m  928.9940m  929.5532m  947.9988m 
   29.92000n  869.9462m  870.0897m  870.6483m  889.1466m 
   29.93000n  811.0415m  811.1853m  811.7435m  830.2944m 
   29.94000n  752.1368m  752.2810m  752.8386m  771.4422m 
   29.95000n  693.2320m  693.3767m  693.9338m  712.5900m 
   29.96000n  634.3273m  634.4723m  635.0289m  653.7378m 
   29.97000n  575.4226m  575.5680m  576.1240m  594.8856m 
   29.98000n  516.5178m  516.6637m  517.2192m  536.0334m 
   29.99000n  457.6131m  457.7593m  458.3143m  477.1812m 
   30.00000n  398.7084m  398.8550m  399.4095m  418.3290m 
y

          ***** job concluded
 ******  
 *a bus interconnect circuit with 34 bus line 16 segment.

 ****** job statistics summary tnom=  25.000 temp=  25.000 ******

  ******  HSPICE Threads Information  ******

  Command Line Threads Count :     1
  Available CPU Count        :     8
  Actual Threads Count       :     1


  ******  Circuit Statistics  ******
  # nodes       =    1123 # elements   =   19676
  # resistors   =     579 # capacitors =    9569 # inductors   =     544
  # mutual_inds =    8976 # vccs       =       0 # vcvs        =       0
  # cccs        =       0 # ccvs       =       0 # volt_srcs   =       0
  # curr_srcs   =       8 # diodes     =       0 # bjts        =       0
  # jfets       =       0 # mosfets    =       0 # U elements  =       0
  # T elements  =       0 # W elements =       0 # B elements  =       0
  # S elements  =       0 # P elements =       0 # va device   =       0
  # vector_srcs =       0 # N elements =       0


  ******  Runtime Statistics (seconds)  ******

  analysis           time    # points   tot. iter  conv.iter
  op point           3.29           1           1
  transient          0.96        3001         166          78 rev=         0
  readin             1.41
  errchk             0.18
  setup              0.21
  output             0.00


           peak memory used        111.10 megabytes
           total cpu time            6.62 seconds
           total elapsed time        7.75 seconds
           job started at     18:12:37 12/06/2022
           job ended   at     18:12:44 12/06/2022
           job total runtime         7.75 seconds


  lic: Release hspice token(s) 
 lic: total license checkout elapse time:        1.08(s)
