 ****** HSPICE -- P-2019.06-SP1-1 win64 (Sep 27 2019) ******                    
  Copyright (c) 1986 - 2022 by Synopsys, Inc. All Rights Reserved.              
  This software and the associated documentation are proprietary
  to Synopsys, Inc. This software may only be used in accordance
  with the terms and conditions of a written license agreement with
  Synopsys, Inc. All other use, reproduction, or distribution of
  this software is strictly prohibited.
  Input File: bus8bit8seg.sp                                                    
  Command line options: C:\synopsys\Hspice_P-2019.06-SP1-1\WIN64\hspice.com -i bus8bit8seg.sp -o F:\Benchmark\bus8bit8seg.lis
  Start time: Tue Dec  6 18:06:09 2022
  lic:  
  lic: FLEXlm: SDK_12.3 
  lic: USER:   44919                HOSTNAME: CZJ 
  lic: HOSTID: "000000000000"       PID:      21952 
  lic: Using FLEXlm license file: 
  lic: 27000@CZJ 
  lic: Checkout 1 hspice 
  lic: License/Maintenance for hspice will expire on 30-dec-2030/2030.12 
  lic: 1(in_use)/99(total) FLOATING license(s) on SERVER 27000@CZJ 
  lic:   
1****** HSPICE -- P-2019.06-SP1-1 win64 (Sep 27 2019) ******                    
 ******  
 *a bus interconnect circuit with 10 bus line 8 segment.

 ****** circuit name directory
 circuit number to circuit name directory
   number circuitname                     definition         multiplier
        0 main circuit
        1 x1.                             intercon           1.00 
  **info** (bus8bit8seg.sp:12) DC voltage reset to initial transient source value in source 0:iin1. new dc=0.0000D+00
  **warning** For .option genk=1, 0 implicit mutual inductors are generated!

             
 Summary of Linear Res Distribution Info
 -----------------------------------------------------
 |Range                        |Total     |Percent(%)|
 |-----------------------------+----------+----------|
 |1.000000e-01  ~  1.000000e+00|3         |3.2967    |
 |1.000000e+00  ~  1.000000e+03|88        |96.7033   |
 -----------------------------------------------------
              
             
 Summary of Linear Cap Distribution Info
 -----------------------------------------------------
 |Range                        |Total     |Percent(%)|
 |-----------------------------+----------+----------|
 |1.000000e-15  ~  1.000000e-14|142       |34.3826   |
 |1.000000e-14  ~  1.000000e-13|263       |63.6804   |
 |1.000000e-13  ~  1.000000e-12|8         |1.9370    |
 -----------------------------------------------------
              
             
 Summary of Detailed RC Type Statistics
 -------------------------
 |Element Type|Number    |
 |------------+----------|
 |Constant Res|91        |
 |            |          |
 |Constant Cap|413       |
 -------------------------
              
  
      
 *****************************************************************
 ******  option summary
 ******
 runlvl  = 3         bypass  = 2.0000    

 **info** rebuilding matrix with pivot option

 **info** dc convergence successful at Newton-Raphson method 
 ******  
 *a bus interconnect circuit with 10 bus line 8 segment.

 ****** operating point information tnom=  25.000 temp=  25.000 ******
 ****** operating point status is voltage   simulation time is     0.     
    node    =voltage      node    =voltage      node    =voltage

 +0:tdn1a1  =   0.      0:tdn1a9  =   0.      0:tdn2a1  =   0.     
 +0:tdn2a9  =   0.      0:tdn3a1  =   0.      0:tdn3a9  =   0.     
 +0:tdn4a1  =   0.      0:tdn4a9  =   0.      0:tdn5a1  =   0.     
 +0:tdn5a9  =   0.      0:tdn6a1  =   0.      0:tdn6a9  =   0.     
 +0:tdn7a1  =   0.      0:tdn7a9  =   0.      0:tdn8a1  =   0.     
 +0:tdn8a9  =   0.      0:tdnga1  =   0.      0:tdnga9  =   0.     
 +0:tdnva1  =   0.      0:tdnva9  =   0.      1:tdn1a10 =   0.     
 +1:tdn1a11 =   0.      1:tdn1a12 =   0.      1:tdn1a13 =   0.     
 +1:tdn1a14 =   0.      1:tdn1a15 =   0.      1:tdn1a16 =   0.     
 +1:tdn1a2  =   0.      1:tdn1a3  =   0.      1:tdn1a4  =   0.     
 +1:tdn1a5  =   0.      1:tdn1a6  =   0.      1:tdn1a7  =   0.     
 +1:tdn1a8  =   0.      1:tdn1a9  =   0.      1:tdn2a10 =   0.     
 +1:tdn2a11 =   0.      1:tdn2a12 =   0.      1:tdn2a13 =   0.     
 +1:tdn2a14 =   0.      1:tdn2a15 =   0.      1:tdn2a16 =   0.     
 +1:tdn2a2  =   0.      1:tdn2a3  =   0.      1:tdn2a4  =   0.     
 +1:tdn2a5  =   0.      1:tdn2a6  =   0.      1:tdn2a7  =   0.     
 +1:tdn2a8  =   0.      1:tdn2a9  =   0.      1:tdn3a10 =   0.     
 +1:tdn3a11 =   0.      1:tdn3a12 =   0.      1:tdn3a13 =   0.     
 +1:tdn3a14 =   0.      1:tdn3a15 =   0.      1:tdn3a16 =   0.     
 +1:tdn3a2  =   0.      1:tdn3a3  =   0.      1:tdn3a4  =   0.     
 +1:tdn3a5  =   0.      1:tdn3a6  =   0.      1:tdn3a7  =   0.     
 +1:tdn3a8  =   0.      1:tdn3a9  =   0.      1:tdn4a10 =   0.     
 +1:tdn4a11 =   0.      1:tdn4a12 =   0.      1:tdn4a13 =   0.     
 +1:tdn4a14 =   0.      1:tdn4a15 =   0.      1:tdn4a16 =   0.     
 +1:tdn4a2  =   0.      1:tdn4a3  =   0.      1:tdn4a4  =   0.     
 +1:tdn4a5  =   0.      1:tdn4a6  =   0.      1:tdn4a7  =   0.     
 +1:tdn4a8  =   0.      1:tdn4a9  =   0.      1:tdn5a10 =   0.     
 +1:tdn5a11 =   0.      1:tdn5a12 =   0.      1:tdn5a13 =   0.     
 +1:tdn5a14 =   0.      1:tdn5a15 =   0.      1:tdn5a16 =   0.     
 +1:tdn5a2  =   0.      1:tdn5a3  =   0.      1:tdn5a4  =   0.     
 +1:tdn5a5  =   0.      1:tdn5a6  =   0.      1:tdn5a7  =   0.     
 +1:tdn5a8  =   0.      1:tdn5a9  =   0.      1:tdn6a10 =   0.     
 +1:tdn6a11 =   0.      1:tdn6a12 =   0.      1:tdn6a13 =   0.     
 +1:tdn6a14 =   0.      1:tdn6a15 =   0.      1:tdn6a16 =   0.     
 +1:tdn6a2  =   0.      1:tdn6a3  =   0.      1:tdn6a4  =   0.     
 +1:tdn6a5  =   0.      1:tdn6a6  =   0.      1:tdn6a7  =   0.     
 +1:tdn6a8  =   0.      1:tdn6a9  =   0.      1:tdn7a10 =   0.     
 +1:tdn7a11 =   0.      1:tdn7a12 =   0.      1:tdn7a13 =   0.     
 +1:tdn7a14 =   0.      1:tdn7a15 =   0.      1:tdn7a16 =   0.     
 +1:tdn7a2  =   0.      1:tdn7a3  =   0.      1:tdn7a4  =   0.     
 +1:tdn7a5  =   0.      1:tdn7a6  =   0.      1:tdn7a7  =   0.     
 +1:tdn7a8  =   0.      1:tdn7a9  =   0.      1:tdn8a10 =   0.     
 +1:tdn8a11 =   0.      1:tdn8a12 =   0.      1:tdn8a13 =   0.     
 +1:tdn8a14 =   0.      1:tdn8a15 =   0.      1:tdn8a16 =   0.     
 +1:tdn8a2  =   0.      1:tdn8a3  =   0.      1:tdn8a4  =   0.     
 +1:tdn8a5  =   0.      1:tdn8a6  =   0.      1:tdn8a7  =   0.     
 +1:tdn8a8  =   0.      1:tdn8a9  =   0.      1:tdnga10 =   0.     
 +1:tdnga11 =   0.      1:tdnga12 =   0.      1:tdnga13 =   0.     
 +1:tdnga14 =   0.      1:tdnga15 =   0.      1:tdnga16 =   0.     
 +1:tdnga2  =   0.      1:tdnga3  =   0.      1:tdnga4  =   0.     
 +1:tdnga5  =   0.      1:tdnga6  =   0.      1:tdnga7  =   0.     
 +1:tdnga8  =   0.      1:tdnga9  =   0.      1:tdnva10 =   0.     
 +1:tdnva11 =   0.      1:tdnva12 =   0.      1:tdnva13 =   0.     
 +1:tdnva14 =   0.      1:tdnva15 =   0.      1:tdnva16 =   0.     
 +1:tdnva2  =   0.      1:tdnva3  =   0.      1:tdnva4  =   0.     
 +1:tdnva5  =   0.      1:tdnva6  =   0.      1:tdnva7  =   0.     
 +1:tdnva8  =   0.      1:tdnva9  =   0.     

 ******
 *a bus interconnect circuit with 10 bus line 8 segment.

 ****** transient analysis tnom=  25.000 temp=  25.000 ******
x

 time         voltage    voltage    voltage    voltage   
             tdn1a9     tdn2a9     tdn3a9     tdn4a9     
    0.          0.         0.         0.         0.      
   10.00000p   -5.4618m   -5.4469m   -5.4521m   -5.4521m 
   20.00000p  -15.3155m   -9.8381m  -10.6501m  -10.9668m 
   30.00000p  -27.0005m  -13.7322m  -15.6925m  -16.4615m 
   40.00000p  -44.9720m  -16.8761m  -19.8764m  -21.2722m 
   50.00000p -101.5613m  -15.4114m  -18.7870m  -21.8818m 
   60.00000p -158.1506m  -13.9468m  -17.6976m  -22.4914m 
   70.00000p -214.7398m  -12.4822m  -16.6082m  -23.1010m 
   80.00000p -271.3291m  -11.0176m  -15.5187m  -23.7106m 
   90.00000p -327.9184m   -9.5530m  -14.4293m  -24.3202m 
  100.00000p -384.5076m   -8.0884m  -13.3399m  -24.9298m 
  110.00000p -441.0969m   -6.6238m  -12.2505m  -25.5394m 
  120.00000p -497.6862m   -5.1592m  -11.1611m  -26.1490m 
  130.00000p -568.7034m   -7.1154m  -10.6101m  -24.5150m 
  140.00000p -640.5121m   -9.2592m  -10.0887m  -22.7579m 
  150.00000p -712.3207m  -11.4030m   -9.5673m  -21.0007m 
  160.00000p -784.1293m  -13.5468m   -9.0459m  -19.2436m 
  170.00000p -855.9380m  -15.6906m   -8.5244m  -17.4865m 
  180.00000p -927.7466m  -17.8344m   -8.0030m  -15.7294m 
  190.00000p -999.5553m  -19.9782m   -7.4816m  -13.9722m 
  200.00000p   -1.0714   -22.1220m   -6.9602m  -12.2151m 
  210.00000p   -1.1432   -24.2658m   -6.4388m  -10.4580m 
  220.00000p   -1.2150   -26.4096m   -5.9173m   -8.7009m 
  230.00000p   -1.2868   -28.5534m   -5.3959m   -6.9437m 
  240.00000p   -1.3586   -30.6972m   -4.8745m   -5.1866m 
  250.00000p   -1.4304   -32.8411m   -4.3531m   -3.4295m 
  260.00000p   -1.5022   -34.9849m   -3.8316m   -1.6724m 
  270.00000p   -1.5740   -37.1287m   -3.3102m   84.7562u 
  280.00000p   -1.6458   -39.2725m   -2.7888m    1.8419m 
  290.00000p   -1.7176   -41.4163m   -2.2674m    3.5990m 
  300.00000p   -1.7895   -43.5601m   -1.7459m    5.3561m 
  310.00000p   -1.8613   -45.7039m   -1.2245m    7.1133m 
  320.00000p   -1.9273   -46.8958m   -1.2069m    7.8547m 
  330.00000p   -1.9821   -46.2042m   -2.1863m    6.5864m 
  340.00000p   -2.0368   -45.5126m   -3.1656m    5.3180m 
  350.00000p   -2.0915   -44.8210m   -4.1449m    4.0497m 
  360.00000p   -2.1463   -44.1293m   -5.1243m    2.7814m 
  370.00000p   -2.2010   -43.4377m   -6.1036m    1.5131m 
  380.00000p   -2.2557   -42.7461m   -7.0830m  244.7261u 
  390.00000p   -2.3105   -42.0545m   -8.0623m   -1.0236m 
  400.00000p   -2.3652   -41.3629m   -9.0416m   -2.2919m 
  410.00000p   -2.4199   -40.6713m  -10.0210m   -3.5603m 
  420.00000p   -2.4747   -39.9797m  -11.0003m   -4.8286m 
  430.00000p   -2.5294   -39.2881m  -11.9797m   -6.0969m 
  440.00000p   -2.5842   -38.5964m  -12.9590m   -7.3652m 
  450.00000p   -2.6389   -37.9048m  -13.9383m   -8.6336m 
  460.00000p   -2.6936   -37.2132m  -14.9177m   -9.9019m 
  470.00000p   -2.7484   -36.5216m  -15.8970m  -11.1702m 
  480.00000p   -2.8031   -35.8300m  -16.8764m  -12.4385m 
  490.00000p   -2.8578   -35.1384m  -17.8557m  -13.7069m 
  500.00000p   -2.9126   -34.4468m  -18.8350m  -14.9752m 
  510.00000p   -2.9673   -33.7552m  -19.8144m  -16.2435m 
  520.00000p   -3.0220   -33.0635m  -20.7937m  -17.5118m 
  530.00000p   -3.0768   -32.3719m  -21.7731m  -18.7802m 
  540.00000p   -3.1315   -31.6803m  -22.7524m  -20.0485m 
  550.00000p   -3.1862   -30.9887m  -23.7317m  -21.3168m 
  560.00000p   -3.2410   -30.2971m  -24.7111m  -22.5851m 
  570.00000p   -3.2957   -29.6055m  -25.6904m  -23.8535m 
  580.00000p   -3.3517   -29.1235m  -25.9754m  -24.3669m 
  590.00000p   -3.4095   -28.9497m  -25.2392m  -23.7703m 
  600.00000p   -3.4673   -28.7759m  -24.5031m  -23.1736m 
  610.00000p   -3.5252   -28.6021m  -23.7669m  -22.5770m 
  620.00000p   -3.5830   -28.4283m  -23.0307m  -21.9803m 
  630.00000p   -3.6408   -28.2546m  -22.2946m  -21.3836m 
  640.00000p   -3.6986   -28.0808m  -21.5584m  -20.7870m 
  650.00000p   -3.7565   -27.9070m  -20.8222m  -20.1903m 
  660.00000p   -3.8143   -27.7332m  -20.0861m  -19.5937m 
  670.00000p   -3.8721   -27.5594m  -19.3499m  -18.9970m 
  680.00000p   -3.9299   -27.3857m  -18.6138m  -18.4004m 
  690.00000p   -3.9878   -27.2119m  -17.8776m  -17.8037m 
  700.00000p   -4.0456   -27.0381m  -17.1414m  -17.2070m 
  710.00000p   -4.1034   -26.8643m  -16.4053m  -16.6104m 
  720.00000p   -4.1612   -26.6905m  -15.6691m  -16.0137m 
  730.00000p   -4.2191   -26.5168m  -14.9329m  -15.4171m 
  740.00000p   -4.2769   -26.3430m  -14.1968m  -14.8204m 
  750.00000p   -4.3347   -26.1692m  -13.4606m  -14.2238m 
  760.00000p   -4.3925   -25.9954m  -12.7244m  -13.6271m 
  770.00000p   -4.4504   -25.8216m  -11.9883m  -13.0304m 
  780.00000p   -4.5082   -25.6479m  -11.2521m  -12.4338m 
  790.00000p   -4.5660   -25.4741m  -10.5160m  -11.8371m 
  800.00000p   -4.6238   -25.3003m   -9.7798m  -11.2405m 
  810.00000p   -4.6817   -25.1265m   -9.0436m  -10.6438m 
  820.00000p   -4.7395   -24.9527m   -8.3075m  -10.0472m 
  830.00000p   -4.7973   -24.7789m   -7.5713m   -9.4505m 
  840.00000p   -4.8551   -24.6052m   -6.8351m   -8.8538m 
  850.00000p   -4.9130   -24.4314m   -6.0990m   -8.2572m 
  860.00000p   -4.9708   -24.2576m   -5.3628m   -7.6605m 
  870.00000p   -5.0286   -24.0838m   -4.6266m   -7.0639m 
  880.00000p   -5.0864   -23.9100m   -3.8905m   -6.4672m 
  890.00000p   -5.1443   -23.7363m   -3.1543m   -5.8706m 
  900.00000p   -5.2021   -23.5625m   -2.4182m   -5.2739m 
  910.00000p   -5.2599   -23.3887m   -1.6820m   -4.6772m 
  920.00000p   -5.3178   -23.2149m -945.8331u   -4.0806m 
  930.00000p   -5.3756   -23.0411m -209.6698u   -3.4839m 
  940.00000p   -5.4334   -22.8674m  526.4936u   -2.8873m 
  950.00000p   -5.4912   -22.6936m    1.2627m   -2.2906m 
  960.00000p   -5.5491   -22.5198m    1.9988m   -1.6940m 
  970.00000p   -5.6069   -22.3460m    2.7350m   -1.0973m 
  980.00000p   -5.6647   -22.1722m    3.4711m -500.6366u 
  990.00000p   -5.7225   -21.9985m    4.2073m   96.0207u 
 1000.00000p   -5.7804   -21.8247m    4.9435m  692.6781u 
    1.01000n   -5.8382   -21.6509m    5.6796m    1.2893m 
    1.02000n   -5.8960   -21.4771m    6.4158m    1.8860m 
    1.03000n   -5.9538   -21.3033m    7.1520m    2.4827m 
    1.04000n   -5.9986   -21.5098m    6.6691m    2.2752m 
    1.05000n   -6.0413   -21.7747m    5.9987m    1.9440m 
    1.06000n   -6.0840   -22.0397m    5.3283m    1.6129m 
    1.07000n   -6.1267   -22.3046m    4.6578m    1.2817m 
    1.08000n   -6.1694   -22.5695m    3.9874m  950.5927u 
    1.09000n   -6.2122   -22.8345m    3.3170m  619.4440u 
    1.10000n   -6.2549   -23.0994m    2.6466m  288.2953u 
    1.11000n   -6.2976   -23.3643m    1.9762m  -42.8533u 
    1.12000n   -6.3403   -23.6293m    1.3058m -374.0020u 
    1.13000n   -6.3830   -23.8942m  635.4062u -705.1507u 
    1.14000n   -6.4257   -24.1591m  -35.0005u   -1.0363m 
    1.15000n   -6.4685   -24.4241m -705.4072u   -1.3674m 
    1.16000n   -6.5112   -24.6890m   -1.3758m   -1.6986m 
    1.17000n   -6.5539   -24.9540m   -2.0462m   -2.0297m 
    1.18000n   -6.5966   -25.2189m   -2.7166m   -2.3609m 
    1.19000n   -6.6393   -25.4838m   -3.3870m   -2.6920m 
    1.20000n   -6.6821   -25.7488m   -4.0574m   -3.0232m 
    1.21000n   -6.7248   -26.0137m   -4.7278m   -3.3543m 
    1.22000n   -6.7675   -26.2786m   -5.3983m   -3.6855m 
    1.23000n   -6.8102   -26.5436m   -6.0687m   -4.0166m 
    1.24000n   -6.8529   -26.8085m   -6.7391m   -4.3478m 
    1.25000n   -6.8957   -27.0734m   -7.4095m   -4.6789m 
    1.26000n   -6.9384   -27.3384m   -8.0799m   -5.0101m 
    1.27000n   -6.9811   -27.6033m   -8.7503m   -5.3412m 
    1.28000n   -7.0238   -27.8682m   -9.4207m   -5.6724m 
    1.29000n   -7.0665   -28.1332m  -10.0911m   -6.0035m 
    1.30000n   -7.1092   -28.3981m  -10.7615m   -6.3347m 
    1.31000n   -7.1520   -28.6631m  -11.4319m   -6.6658m 
    1.32000n   -7.1947   -28.9280m  -12.1023m   -6.9970m 
    1.33000n   -7.2374   -29.1929m  -12.7727m   -7.3281m 
    1.34000n   -7.2801   -29.4579m  -13.4431m   -7.6593m 
    1.35000n   -7.3228   -29.7228m  -14.1135m   -7.9904m 
    1.36000n   -7.3656   -29.9877m  -14.7839m   -8.3216m 
    1.37000n   -7.4083   -30.2527m  -15.4544m   -8.6527m 
    1.38000n   -7.4510   -30.5176m  -16.1248m   -8.9839m 
    1.39000n   -7.4937   -30.7825m  -16.7952m   -9.3150m 
    1.40000n   -7.5364   -31.0475m  -17.4656m   -9.6462m 
    1.41000n   -7.5792   -31.3124m  -18.1360m   -9.9773m 
    1.42000n   -7.6219   -31.5773m  -18.8064m  -10.3085m 
    1.43000n   -7.6646   -31.8423m  -19.4768m  -10.6396m 
    1.44000n   -7.7073   -32.1072m  -20.1472m  -10.9708m 
    1.45000n   -7.7500   -32.3722m  -20.8176m  -11.3019m 
    1.46000n   -7.7927   -32.6371m  -21.4880m  -11.6331m 
    1.47000n   -7.8355   -32.9020m  -22.1584m  -11.9642m 
    1.48000n   -7.8782   -33.1670m  -22.8288m  -12.2954m 
    1.49000n   -7.9209   -33.4319m  -23.4992m  -12.6265m 
    1.50000n   -7.9636   -33.6968m  -24.1696m  -12.9577m 
    1.51000n   -7.9949   -33.2347m  -23.7192m  -12.7888m 
    1.52000n   -8.0262   -32.7725m  -23.2687m  -12.6200m 
    1.53000n   -8.0575   -32.3103m  -22.8182m  -12.4512m 
    1.54000n   -8.0888   -31.8481m  -22.3678m  -12.2824m 
    1.55000n   -8.1201   -31.3859m  -21.9173m  -12.1136m 
    1.56000n   -8.1514   -30.9238m  -21.4668m  -11.9448m 
    1.57000n   -8.1827   -30.4616m  -21.0163m  -11.7760m 
    1.58000n   -8.2140   -29.9994m  -20.5659m  -11.6072m 
    1.59000n   -8.2453   -29.5372m  -20.1154m  -11.4384m 
    1.60000n   -8.2766   -29.0751m  -19.6649m  -11.2696m 
    1.61000n   -8.3079   -28.6129m  -19.2145m  -11.1008m 
    1.62000n   -8.3392   -28.1507m  -18.7640m  -10.9320m 
    1.63000n   -8.3705   -27.6885m  -18.3135m  -10.7632m 
    1.64000n   -8.4018   -27.2263m  -17.8630m  -10.5944m 
    1.65000n   -8.4331   -26.7642m  -17.4126m  -10.4256m 
    1.66000n   -8.4644   -26.3020m  -16.9621m  -10.2568m 
    1.67000n   -8.4957   -25.8398m  -16.5116m  -10.0880m 
    1.68000n   -8.5269   -25.3776m  -16.0611m   -9.9192m 
    1.69000n   -8.5582   -24.9154m  -15.6107m   -9.7504m 
    1.70000n   -8.5895   -24.4533m  -15.1602m   -9.5816m 
    1.71000n   -8.6208   -23.9911m  -14.7097m   -9.4128m 
    1.72000n   -8.6521   -23.5289m  -14.2593m   -9.2440m 
    1.73000n   -8.6834   -23.0667m  -13.8088m   -9.0752m 
    1.74000n   -8.7147   -22.6046m  -13.3583m   -8.9064m 
    1.75000n   -8.7460   -22.1424m  -12.9078m   -8.7376m 
    1.76000n   -8.7773   -21.6802m  -12.4574m   -8.5688m 
    1.77000n   -8.8086   -21.2180m  -12.0069m   -8.4000m 
    1.78000n   -8.8399   -20.7558m  -11.5564m   -8.2312m 
    1.79000n   -8.8712   -20.2937m  -11.1060m   -8.0624m 
    1.80000n   -8.9025   -19.8315m  -10.6555m   -7.8936m 
    1.81000n   -8.9338   -19.3693m  -10.2050m   -7.7248m 
    1.82000n   -8.9651   -18.9071m   -9.7545m   -7.5560m 
    1.83000n   -8.9964   -18.4450m   -9.3041m   -7.3872m 
    1.84000n   -9.0277   -17.9828m   -8.8536m   -7.2184m 
    1.85000n   -9.0590   -17.5206m   -8.4031m   -7.0496m 
    1.86000n   -9.0903   -17.0584m   -7.9527m   -6.8808m 
    1.87000n   -9.1216   -16.5962m   -7.5022m   -6.7120m 
    1.88000n   -9.1529   -16.1341m   -7.0517m   -6.5432m 
    1.89000n   -9.1842   -15.6719m   -6.6012m   -6.3744m 
    1.90000n   -9.2155   -15.2097m   -6.1508m   -6.2056m 
    1.91000n   -9.2412   -14.8528m   -5.8268m   -6.0157m 
    1.92000n   -9.2595   -14.6373m   -5.6726m   -5.7975m 
    1.93000n   -9.2777   -14.4218m   -5.5184m   -5.5793m 
    1.94000n   -9.2960   -14.2063m   -5.3642m   -5.3611m 
    1.95000n   -9.3143   -13.9908m   -5.2101m   -5.1429m 
    1.96000n   -9.3325   -13.7753m   -5.0559m   -4.9247m 
    1.97000n   -9.3508   -13.5598m   -4.9017m   -4.7065m 
    1.98000n   -9.3691   -13.3443m   -4.7476m   -4.4883m 
    1.99000n   -9.3874   -13.1288m   -4.5934m   -4.2701m 
    2.00000n   -9.4056   -12.9133m   -4.4392m   -4.0519m 
    2.01000n   -9.4239   -12.6978m   -4.2851m   -3.8337m 
    2.02000n   -9.4422   -12.4823m   -4.1309m   -3.6155m 
    2.03000n   -9.4604   -12.2668m   -3.9767m   -3.3973m 
    2.04000n   -9.4787   -12.0513m   -3.8226m   -3.1791m 
    2.05000n   -9.4970   -11.8358m   -3.6684m   -2.9609m 
    2.06000n   -9.5152   -11.6203m   -3.5142m   -2.7427m 
    2.07000n   -9.5335   -11.4048m   -3.3601m   -2.5246m 
    2.08000n   -9.5518   -11.1893m   -3.2059m   -2.3064m 
    2.09000n   -9.5701   -10.9738m   -3.0517m   -2.0882m 
    2.10000n   -9.5883   -10.7583m   -2.8975m   -1.8700m 
    2.11000n   -9.6066   -10.5428m   -2.7434m   -1.6518m 
    2.12000n   -9.6249   -10.3273m   -2.5892m   -1.4336m 
    2.13000n   -9.6431   -10.1118m   -2.4350m   -1.2154m 
    2.14000n   -9.6614    -9.8963m   -2.2809m -997.1915u 
    2.15000n   -9.6797    -9.6808m   -2.1267m -778.9968u 
    2.16000n   -9.6979    -9.4653m   -1.9725m -560.8021u 
    2.17000n   -9.7162    -9.2498m   -1.8184m -342.6073u 
    2.18000n   -9.7345    -9.0343m   -1.6642m -124.4126u 
    2.19000n   -9.7528    -8.8188m   -1.5100m   93.7821u 
    2.20000n   -9.7710    -8.6033m   -1.3559m  311.9768u 
    2.21000n   -9.7893    -8.3878m   -1.2017m  530.1715u 
    2.22000n   -9.8076    -8.1723m   -1.0475m  748.3662u 
    2.23000n   -9.8258    -7.9568m -893.3550u  966.5609u 
    2.24000n   -9.8441    -7.7413m -739.1862u    1.1848m 
    2.25000n   -9.8624    -7.5258m -585.0174u    1.4030m 
    2.26000n   -9.8806    -7.3103m -430.8487u    1.6211m 
    2.27000n   -9.8989    -7.0948m -276.6799u    1.8393m 
    2.28000n   -9.9035    -6.8629m -365.4048u    1.6761m 
    2.29000n   -9.9071    -6.6299m -470.4844u    1.4873m 
    2.30000n   -9.9108    -6.3968m -575.5641u    1.2984m 
    2.31000n   -9.9144    -6.1638m -680.6438u    1.1095m 
    2.32000n   -9.9181    -5.9307m -785.7234u  920.5985u 
    2.33000n   -9.9217    -5.6977m -890.8031u  731.7141u 
    2.34000n   -9.9253    -5.4647m -995.8828u  542.8297u 
    2.35000n   -9.9290    -5.2316m   -1.1010m  353.9453u 
    2.36000n   -9.9326    -4.9986m   -1.2060m  165.0609u 
    2.37000n   -9.9363    -4.7655m   -1.3111m  -23.8235u 
    2.38000n   -9.9399    -4.5325m   -1.4162m -212.7079u 
    2.39000n   -9.9436    -4.2994m   -1.5213m -401.5923u 
    2.40000n   -9.9472    -4.0664m   -1.6264m -590.4768u 
    2.41000n   -9.9508    -3.8333m   -1.7314m -779.3612u 
    2.42000n   -9.9545    -3.6003m   -1.8365m -968.2456u 
    2.43000n   -9.9581    -3.3673m   -1.9416m   -1.1571m 
    2.44000n   -9.9618    -3.1342m   -2.0467m   -1.3460m 
    2.45000n   -9.9654    -2.9012m   -2.1518m   -1.5349m 
    2.46000n   -9.9691    -2.6681m   -2.2568m   -1.7238m 
    2.47000n   -9.9727    -2.4351m   -2.3619m   -1.9127m 
    2.48000n   -9.9763    -2.2020m   -2.4670m   -2.1016m 
    2.49000n   -9.9800    -1.9690m   -2.5721m   -2.2904m 
    2.50000n   -9.9836    -1.7360m   -2.6772m   -2.4793m 
    2.51000n   -9.9774    -1.6120m   -2.5709m   -2.3767m 
    2.52000n   -9.9711    -1.4881m   -2.4647m   -2.2740m 
    2.53000n   -9.9648    -1.3641m   -2.3585m   -2.1713m 
    2.54000n   -9.9586    -1.2401m   -2.2523m   -2.0687m 
    2.55000n   -9.9523    -1.1162m   -2.1460m   -1.9660m 
    2.56000n   -9.9461  -992.2317u   -2.0398m   -1.8633m 
    2.57000n   -9.9398  -868.2766u   -1.9336m   -1.7607m 
    2.58000n   -9.9335  -744.3214u   -1.8274m   -1.6580m 
    2.59000n   -9.9273  -620.3663u   -1.7212m   -1.5553m 
    2.60000n   -9.9210  -496.4111u   -1.6149m   -1.4527m 
    2.61000n   -9.9148  -372.4560u   -1.5087m   -1.3500m 
    2.62000n   -9.9085  -248.5009u   -1.4025m   -1.2473m 
    2.63000n   -9.9022  -124.5457u   -1.2963m   -1.1447m 
    2.64000n   -9.8960  -590.5695n   -1.1901m   -1.0420m 
    2.65000n   -9.8897   123.3646u   -1.0838m -939.3391u 
    2.66000n   -9.8835   247.3197u -977.6127u -836.6737u 
    2.67000n   -9.8772   371.2749u -871.3912u -734.0083u 
    2.68000n   -9.8709   495.2300u -765.1696u -631.3428u 
    2.69000n   -9.8647   619.1851u -658.9481u -528.6774u 
    2.70000n   -9.8584   743.1403u -552.7265u -426.0119u 
    2.71000n   -9.8522   867.0954u -446.5050u -323.3465u 
    2.72000n   -9.8459   991.0506u -340.2835u -220.6810u 
    2.73000n   -9.8397     1.1150m -234.0619u -118.0156u 
    2.74000n   -9.8334     1.2390m -127.8404u  -15.3501u 
    2.75000n   -9.8271     1.3629m  -21.6188u   87.3153u 
    2.76000n   -9.8209     1.4869m   84.6027u  189.9808u 
    2.77000n   -9.8146     1.6108m  190.8243u  292.6462u 
    2.78000n   -9.8084     1.7348m  297.0458u  395.3116u 
    2.79000n   -9.8021     1.8587m  403.2673u  497.9771u 
    2.80000n   -9.7958     1.9827m  509.4889u  600.6425u 
    2.81000n   -9.7896     2.1066m  615.7104u  703.3080u 
    2.82000n   -9.7833     2.2306m  721.9320u  805.9734u 
    2.83000n   -9.7771     2.3546m  828.1535u  908.6389u 
    2.84000n   -9.7708     2.4785m  934.3751u    1.0113m 
    2.85000n   -9.7645     2.6025m    1.0406m    1.1140m 
    2.86000n   -9.7583     2.7264m    1.1468m    1.2166m 
    2.87000n   -9.7482     2.8969m    1.2619m    1.3396m 
    2.88000n   -9.7293     3.1756m    1.3976m    1.5099m 
    2.89000n   -9.7104     3.4543m    1.5333m    1.6801m 
    2.90000n   -9.6914     3.7330m    1.6691m    1.8503m 
    2.91000n   -9.6725     4.0117m    1.8048m    2.0205m 
    2.92000n   -9.6536     4.2904m    1.9405m    2.1907m 
    2.93000n   -9.6347     4.5691m    2.0762m    2.3610m 
    2.94000n   -9.6158     4.8478m    2.2119m    2.5312m 
    2.95000n   -9.5968     5.1265m    2.3476m    2.7014m 
    2.96000n   -9.5779     5.4052m    2.4833m    2.8716m 
    2.97000n   -9.5590     5.6839m    2.6190m    3.0419m 
    2.98000n   -9.5401     5.9625m    2.7548m    3.2121m 
    2.99000n   -9.5212     6.2412m    2.8905m    3.3823m 
    3.00000n   -9.5022     6.5199m    3.0262m    3.5525m 
    3.01000n   -9.4833     6.7986m    3.1619m    3.7228m 
    3.02000n   -9.4644     7.0773m    3.2976m    3.8930m 
    3.03000n   -9.4455     7.3560m    3.4333m    4.0632m 
    3.04000n   -9.4266     7.6347m    3.5690m    4.2334m 
    3.05000n   -9.4076     7.9134m    3.7047m    4.4037m 
    3.06000n   -9.3887     8.1921m    3.8405m    4.5739m 
    3.07000n   -9.3698     8.4708m    3.9762m    4.7441m 
    3.08000n   -9.3509     8.7495m    4.1119m    4.9143m 
    3.09000n   -9.3320     9.0282m    4.2476m    5.0845m 
    3.10000n   -9.3130     9.3068m    4.3833m    5.2548m 
    3.11000n   -9.2941     9.5855m    4.5190m    5.4250m 
    3.12000n   -9.2752     9.8642m    4.6547m    5.5952m 
    3.13000n   -9.2563    10.1429m    4.7904m    5.7654m 
    3.14000n   -9.2374    10.4216m    4.9262m    5.9357m 
    3.15000n   -9.2184    10.7003m    5.0619m    6.1059m 
    3.16000n   -9.1995    10.9790m    5.1976m    6.2761m 
    3.17000n   -9.1806    11.2577m    5.3333m    6.4463m 
    3.18000n   -9.1617    11.5364m    5.4690m    6.6166m 
    3.19000n   -9.1428    11.8151m    5.6047m    6.7868m 
    3.20000n   -9.1238    12.0938m    5.7404m    6.9570m 
    3.21000n   -9.1049    12.3724m    5.8761m    7.1272m 
    3.22000n   -9.0860    12.6511m    6.0119m    7.2974m 
    3.23000n   -9.0562    12.8662m    6.0147m    7.2438m 
    3.24000n   -9.0232    13.0622m    5.9779m    7.1235m 
    3.25000n   -8.9902    13.2583m    5.9412m    7.0031m 
    3.26000n   -8.9572    13.4544m    5.9044m    6.8828m 
    3.27000n   -8.9242    13.6504m    5.8677m    6.7624m 
    3.28000n   -8.8912    13.8465m    5.8309m    6.6421m 
    3.29000n   -8.8582    14.0425m    5.7942m    6.5218m 
    3.30000n   -8.8252    14.2386m    5.7574m    6.4014m 
    3.31000n   -8.7922    14.4346m    5.7207m    6.2811m 
    3.32000n   -8.7592    14.6307m    5.6839m    6.1607m 
    3.33000n   -8.7261    14.8268m    5.6472m    6.0404m 
    3.34000n   -8.6931    15.0228m    5.6104m    5.9200m 
    3.35000n   -8.6601    15.2189m    5.5736m    5.7997m 
    3.36000n   -8.6271    15.4149m    5.5369m    5.6793m 
    3.37000n   -8.5941    15.6110m    5.5001m    5.5590m 
    3.38000n   -8.5611    15.8071m    5.4634m    5.4387m 
    3.39000n   -8.5281    16.0031m    5.4266m    5.3183m 
    3.40000n   -8.4951    16.1992m    5.3899m    5.1980m 
    3.41000n   -8.4621    16.3952m    5.3531m    5.0776m 
    3.42000n   -8.4291    16.5913m    5.3164m    4.9573m 
    3.43000n   -8.3961    16.7874m    5.2796m    4.8369m 
    3.44000n   -8.3630    16.9834m    5.2429m    4.7166m 
    3.45000n   -8.3300    17.1795m    5.2061m    4.5962m 
    3.46000n   -8.2970    17.3755m    5.1693m    4.4759m 
    3.47000n   -8.2640    17.5716m    5.1326m    4.3556m 
    3.48000n   -8.2310    17.7677m    5.0958m    4.2352m 
    3.49000n   -8.1980    17.9637m    5.0591m    4.1149m 
    3.50000n   -8.1650    18.1598m    5.0223m    3.9945m 
    3.51000n   -8.1223    18.2400m    5.0889m    4.0742m 
    3.52000n   -8.0795    18.3201m    5.1554m    4.1538m 
    3.53000n   -8.0368    18.4003m    5.2219m    4.2335m 
    3.54000n   -7.9941    18.4805m    5.2885m    4.3131m 
    3.55000n   -7.9513    18.5607m    5.3550m    4.3928m 
    3.56000n   -7.9086    18.6409m    5.4215m    4.4724m 
    3.57000n   -7.8659    18.7211m    5.4880m    4.5521m 
    3.58000n   -7.8232    18.8012m    5.5546m    4.6317m 
    3.59000n   -7.7804    18.8814m    5.6211m    4.7114m 
    3.60000n   -7.7377    18.9616m    5.6876m    4.7910m 
    3.61000n   -7.6950    19.0418m    5.7542m    4.8707m 
    3.62000n   -7.6522    19.1220m    5.8207m    4.9503m 
    3.63000n   -7.6095    19.2022m    5.8872m    5.0300m 
    3.64000n   -7.5668    19.2824m    5.9538m    5.1096m 
    3.65000n   -7.5240    19.3625m    6.0203m    5.1893m 
    3.66000n   -7.4813    19.4427m    6.0868m    5.2689m 
    3.67000n   -7.4386    19.5229m    6.1534m    5.3486m 
    3.68000n   -7.3959    19.6031m    6.2199m    5.4282m 
    3.69000n   -7.3531    19.6833m    6.2864m    5.5079m 
    3.70000n   -7.3104    19.7635m    6.3530m    5.5875m 
    3.71000n   -7.2677    19.8436m    6.4195m    5.6672m 
    3.72000n   -7.2249    19.9238m    6.4860m    5.7468m 
    3.73000n   -7.1822    20.0040m    6.5526m    5.8265m 
    3.74000n   -7.1395    20.0842m    6.6191m    5.9061m 
    3.75000n   -7.0968    20.1644m    6.6856m    5.9858m 
    3.76000n   -7.0540    20.2446m    6.7521m    6.0654m 
    3.77000n   -7.0113    20.3248m    6.8187m    6.1451m 
    3.78000n   -6.9686    20.4049m    6.8852m    6.2247m 
    3.79000n   -6.9258    20.4851m    6.9517m    6.3044m 
    3.80000n   -6.8831    20.5653m    7.0183m    6.3840m 
    3.81000n   -6.8404    20.6455m    7.0848m    6.4637m 
    3.82000n   -6.7976    20.7257m    7.1513m    6.5433m 
    3.83000n   -6.7549    20.8059m    7.2179m    6.6230m 
    3.84000n   -6.7122    20.8860m    7.2844m    6.7026m 
    3.85000n   -6.6695    20.9662m    7.3509m    6.7823m 
    3.86000n   -6.6267    21.0464m    7.4175m    6.8619m 
    3.87000n   -6.5840    21.1266m    7.4840m    6.9416m 
    3.88000n   -6.5413    21.2068m    7.5505m    7.0212m 
    3.89000n   -6.4985    21.2870m    7.6171m    7.1009m 
    3.90000n   -6.4558    21.3671m    7.6836m    7.1805m 
    3.91000n   -6.4131    21.4473m    7.7501m    7.2602m 
    3.92000n   -6.3703    21.5275m    7.8167m    7.3398m 
    3.93000n   -6.3276    21.6077m    7.8832m    7.4195m 
    3.94000n   -6.2849    21.6879m    7.9497m    7.4991m 
    3.95000n   -6.2369    21.8382m    8.0322m    7.5991m 
    3.96000n   -6.1849    22.0420m    8.1267m    7.7146m 
    3.97000n   -6.1328    22.2458m    8.2213m    7.8301m 
    3.98000n   -6.0808    22.4496m    8.3159m    7.9456m 
    3.99000n   -6.0288    22.6534m    8.4105m    8.0611m 
    4.00000n   -5.9768    22.8572m    8.5051m    8.1766m 
    4.01000n   -5.9248    23.0610m    8.5997m    8.2921m 
    4.02000n   -5.8727    23.2648m    8.6942m    8.4076m 
    4.03000n   -5.8207    23.4686m    8.7888m    8.5231m 
    4.04000n   -5.7687    23.6724m    8.8834m    8.6386m 
    4.05000n   -5.7167    23.8762m    8.9780m    8.7540m 
    4.06000n   -5.6646    24.0801m    9.0726m    8.8695m 
    4.07000n   -5.6126    24.2839m    9.1671m    8.9850m 
    4.08000n   -5.5606    24.4877m    9.2617m    9.1005m 
    4.09000n   -5.5086    24.6915m    9.3563m    9.2160m 
    4.10000n   -5.4566    24.8953m    9.4509m    9.3315m 
    4.11000n   -5.4045    25.0991m    9.5455m    9.4470m 
    4.12000n   -5.3525    25.3029m    9.6400m    9.5625m 
    4.13000n   -5.3005    25.5067m    9.7346m    9.6780m 
    4.14000n   -5.2485    25.7105m    9.8292m    9.7935m 
    4.15000n   -5.1964    25.9143m    9.9238m    9.9090m 
    4.16000n   -5.1444    26.1181m   10.0184m   10.0245m 
    4.17000n   -5.0924    26.3219m   10.1130m   10.1399m 
    4.18000n   -5.0404    26.5257m   10.2075m   10.2554m 
    4.19000n   -4.9883    26.7295m   10.3021m   10.3709m 
    4.20000n   -4.9363    26.9333m   10.3967m   10.4864m 
    4.21000n   -4.8843    27.1371m   10.4913m   10.6019m 
    4.22000n   -4.8323    27.3409m   10.5859m   10.7174m 
    4.23000n   -4.7803    27.5447m   10.6804m   10.8329m 
    4.24000n   -4.7282    27.7485m   10.7750m   10.9484m 
    4.25000n   -4.6762    27.9523m   10.8696m   11.0639m 
    4.26000n   -4.6242    28.1561m   10.9642m   11.1794m 
    4.27000n   -4.5722    28.3599m   11.0588m   11.2949m 
    4.28000n   -4.5201    28.5637m   11.1534m   11.4104m 
    4.29000n   -4.4681    28.7675m   11.2479m   11.5259m 
    4.30000n   -4.4161    28.9714m   11.3425m   11.6413m 
    4.31000n   -4.3641    29.1752m   11.4371m   11.7568m 
    4.32000n   -4.3034    29.2432m   11.4338m   11.7252m 
    4.33000n   -4.2422    29.3030m   11.4246m   11.6845m 
    4.34000n   -4.1810    29.3627m   11.4153m   11.6438m 
    4.35000n   -4.1199    29.4225m   11.4061m   11.6031m 
    4.36000n   -4.0587    29.4822m   11.3968m   11.5625m 
    4.37000n   -3.9975    29.5420m   11.3876m   11.5218m 
    4.38000n   -3.9363    29.6017m   11.3783m   11.4811m 
    4.39000n   -3.8751    29.6615m   11.3691m   11.4404m 
    4.40000n   -3.8139    29.7212m   11.3598m   11.3997m 
    4.41000n   -3.7527    29.7810m   11.3505m   11.3591m 
    4.42000n   -3.6915    29.8407m   11.3413m   11.3184m 
    4.43000n   -3.6304    29.9005m   11.3320m   11.2777m 
    4.44000n   -3.5692    29.9602m   11.3228m   11.2370m 
    4.45000n   -3.5080    30.0199m   11.3135m   11.1963m 
    4.46000n   -3.4468    30.0797m   11.3043m   11.1557m 
    4.47000n   -3.3856    30.1394m   11.2950m   11.1150m 
    4.48000n   -3.3244    30.1992m   11.2858m   11.0743m 
    4.49000n   -3.2632    30.2589m   11.2765m   11.0336m 
    4.50000n   -3.2020    30.3187m   11.2673m   10.9929m 
    4.51000n   -3.1409    30.3784m   11.2580m   10.9523m 
    4.52000n   -3.0797    30.4382m   11.2487m   10.9116m 
    4.53000n   -3.0185    30.4979m   11.2395m   10.8709m 
    4.54000n   -2.9573    30.5577m   11.2302m   10.8302m 
    4.55000n   -2.8961    30.6174m   11.2210m   10.7895m 
    4.56000n   -2.8349    30.6772m   11.2117m   10.7489m 
    4.57000n   -2.7737    30.7369m   11.2025m   10.7082m 
    4.58000n   -2.7125    30.7967m   11.1932m   10.6675m 
    4.59000n   -2.6513    30.8564m   11.1840m   10.6268m 
    4.60000n   -2.5902    30.9162m   11.1747m   10.5861m 
    4.61000n   -2.5290    30.9759m   11.1655m   10.5455m 
    4.62000n   -2.4678    31.0357m   11.1562m   10.5048m 
    4.63000n   -2.4066    31.0954m   11.1469m   10.4641m 
    4.64000n   -2.3454    31.1552m   11.1377m   10.4234m 
    4.65000n   -2.2842    31.2149m   11.1284m   10.3827m 
    4.66000n   -2.2230    31.2747m   11.1192m   10.3421m 
    4.67000n   -2.1618    31.3344m   11.1099m   10.3014m 
    4.68000n   -2.1007    31.3941m   11.1007m   10.2607m 
    4.69000n   -2.0395    31.4539m   11.0914m   10.2200m 
    4.70000n   -1.9783    31.5136m   11.0822m   10.1793m 
    4.71000n   -1.9171    31.5734m   11.0729m   10.1387m 
    4.72000n   -1.8559    31.6331m   11.0636m   10.0980m 
    4.73000n   -1.7947    31.6929m   11.0544m   10.0573m 
    4.74000n   -1.7335    31.7526m   11.0451m   10.0166m 
    4.75000n   -1.6723    31.8124m   11.0359m    9.9759m 
    4.76000n   -1.6112    31.8721m   11.0266m    9.9353m 
    4.77000n   -1.5500    31.9319m   11.0174m    9.8946m 
    4.78000n   -1.4888    31.9916m   11.0081m    9.8539m 
    4.79000n   -1.4276    32.0514m   10.9989m    9.8132m 
    4.80000n   -1.3664    32.1111m   10.9896m    9.7725m 
    4.81000n   -1.3052    32.1709m   10.9804m    9.7319m 
    4.82000n   -1.2440    32.2306m   10.9711m    9.6912m 
    4.83000n   -1.1828    32.2904m   10.9618m    9.6505m 
    4.84000n   -1.1216    32.3501m   10.9526m    9.6098m 
    4.85000n   -1.0605    32.4099m   10.9433m    9.5691m 
    4.86000n -999.2730m   32.4696m   10.9341m    9.5285m 
    4.87000n -938.0851m   32.5294m   10.9248m    9.4878m 
    4.88000n -876.8971m   32.5891m   10.9156m    9.4471m 
    4.89000n -815.7092m   32.6488m   10.9063m    9.4064m 
    4.90000n -754.5212m   32.7086m   10.8971m    9.3657m 
    4.91000n -693.3333m   32.7683m   10.8878m    9.3251m 
    4.92000n -632.1453m   32.8281m   10.8785m    9.2844m 
    4.93000n -570.9574m   32.8878m   10.8693m    9.2437m 
    4.94000n -509.7694m   32.9476m   10.8600m    9.2030m 
    4.95000n -448.5815m   33.0073m   10.8508m    9.1623m 
    4.96000n -387.3936m   33.0671m   10.8415m    9.1217m 
    4.97000n -326.2056m   33.1268m   10.8323m    9.0810m 
    4.98000n -265.0177m   33.1866m   10.8230m    9.0403m 
    4.99000n -203.8297m   33.2463m   10.8138m    8.9996m 
    5.00000n -142.6418m   33.3061m   10.8045m    8.9589m 
    5.01000n  -81.7071m   33.2825m   10.8132m    8.9810m 
    5.02000n  -20.7723m   33.2590m   10.8220m    9.0031m 
    5.03000n   40.1624m   33.2355m   10.8307m    9.0252m 
    5.04000n  101.0971m   33.2120m   10.8395m    9.0473m 
    5.05000n  162.0318m   33.1884m   10.8482m    9.0694m 
    5.06000n  222.9665m   33.1649m   10.8569m    9.0915m 
    5.07000n  283.9012m   33.1414m   10.8657m    9.1136m 
    5.08000n  344.8360m   33.1178m   10.8744m    9.1357m 
    5.09000n  405.7707m   33.0943m   10.8832m    9.1578m 
    5.10000n  466.7054m   33.0708m   10.8919m    9.1799m 
    5.11000n  527.6401m   33.0473m   10.9006m    9.2020m 
    5.12000n  588.5748m   33.0237m   10.9094m    9.2241m 
    5.13000n  649.5095m   33.0002m   10.9181m    9.2462m 
    5.14000n  710.4442m   32.9767m   10.9268m    9.2683m 
    5.15000n  771.3790m   32.9532m   10.9356m    9.2904m 
    5.16000n  832.3137m   32.9296m   10.9443m    9.3125m 
    5.17000n  893.2484m   32.9061m   10.9531m    9.3346m 
    5.18000n  954.1831m   32.8826m   10.9618m    9.3567m 
    5.19000n    1.0151    32.8590m   10.9705m    9.3788m 
    5.20000n    1.0761    32.8355m   10.9793m    9.4009m 
    5.21000n    1.1370    32.8120m   10.9880m    9.4230m 
    5.22000n    1.1979    32.7885m   10.9967m    9.4451m 
    5.23000n    1.2589    32.7649m   11.0055m    9.4672m 
    5.24000n    1.3198    32.7414m   11.0142m    9.4894m 
    5.25000n    1.3807    32.7179m   11.0230m    9.5115m 
    5.26000n    1.4417    32.6943m   11.0317m    9.5336m 
    5.27000n    1.5026    32.6708m   11.0404m    9.5557m 
    5.28000n    1.5635    32.6473m   11.0492m    9.5778m 
    5.29000n    1.6245    32.6238m   11.0579m    9.5999m 
    5.30000n    1.6854    32.6002m   11.0666m    9.6220m 
    5.31000n    1.7463    32.5767m   11.0754m    9.6441m 
    5.32000n    1.8073    32.5532m   11.0841m    9.6662m 
    5.33000n    1.8682    32.5296m   11.0929m    9.6883m 
    5.34000n    1.9291    32.5061m   11.1016m    9.7104m 
    5.35000n    1.9901    32.4826m   11.1103m    9.7325m 
    5.36000n    2.0510    32.4591m   11.1191m    9.7546m 
    5.37000n    2.1119    32.4355m   11.1278m    9.7767m 
    5.38000n    2.1729    32.4120m   11.1365m    9.7988m 
    5.39000n    2.2338    32.3885m   11.1453m    9.8209m 
    5.40000n    2.2947    32.3649m   11.1540m    9.8430m 
    5.41000n    2.3557    32.3414m   11.1628m    9.8651m 
    5.42000n    2.4166    32.3179m   11.1715m    9.8872m 
    5.43000n    2.4776    32.2944m   11.1802m    9.9093m 
    5.44000n    2.5385    32.2708m   11.1890m    9.9314m 
    5.45000n    2.5994    32.2473m   11.1977m    9.9535m 
    5.46000n    2.6604    32.2238m   11.2065m    9.9756m 
    5.47000n    2.7213    32.2002m   11.2152m    9.9977m 
    5.48000n    2.7822    32.1767m   11.2239m   10.0198m 
    5.49000n    2.8432    32.1532m   11.2327m   10.0419m 
    5.50000n    2.9041    32.1297m   11.2414m   10.0640m 
    5.51000n    2.9650    32.1061m   11.2501m   10.0861m 
    5.52000n    3.0260    32.0826m   11.2589m   10.1082m 
    5.53000n    3.0869    32.0591m   11.2676m   10.1303m 
    5.54000n    3.1478    32.0355m   11.2764m   10.1524m 
    5.55000n    3.2088    32.0120m   11.2851m   10.1745m 
    5.56000n    3.2697    31.9885m   11.2938m   10.1966m 
    5.57000n    3.3306    31.9650m   11.3026m   10.2187m 
    5.58000n    3.3916    31.9414m   11.3113m   10.2408m 
    5.59000n    3.4525    31.9179m   11.3200m   10.2629m 
    5.60000n    3.5134    31.8944m   11.3288m   10.2850m 
    5.61000n    3.5744    31.8709m   11.3375m   10.3071m 
    5.62000n    3.6353    31.8473m   11.3463m   10.3292m 
    5.63000n    3.6962    31.8238m   11.3550m   10.3513m 
    5.64000n    3.7572    31.8003m   11.3637m   10.3734m 
    5.65000n    3.8181    31.7767m   11.3725m   10.3955m 
    5.66000n    3.8718    31.6889m   11.3427m   10.3683m 
    5.67000n    3.9210    31.5616m   11.2893m   10.3110m 
    5.68000n    3.9701    31.4342m   11.2359m   10.2536m 
    5.69000n    4.0193    31.3069m   11.1825m   10.1963m 
    5.70000n    4.0685    31.1796m   11.1291m   10.1390m 
    5.71000n    4.1177    31.0523m   11.0757m   10.0816m 
    5.72000n    4.1669    30.9250m   11.0223m   10.0243m 
    5.73000n    4.2161    30.7977m   10.9689m    9.9670m 
    5.74000n    4.2653    30.6704m   10.9155m    9.9096m 
    5.75000n    4.3145    30.5431m   10.8621m    9.8523m 
    5.76000n    4.3637    30.4158m   10.8087m    9.7950m 
    5.77000n    4.4128    30.2885m   10.7553m    9.7376m 
    5.78000n    4.4620    30.1612m   10.7019m    9.6803m 
    5.79000n    4.5112    30.0338m   10.6485m    9.6230m 
    5.80000n    4.5604    29.9065m   10.5951m    9.5656m 
    5.81000n    4.6096    29.7792m   10.5417m    9.5083m 
    5.82000n    4.6588    29.6519m   10.4883m    9.4510m 
    5.83000n    4.7080    29.5246m   10.4349m    9.3936m 
    5.84000n    4.7572    29.3973m   10.3815m    9.3363m 
    5.85000n    4.8064    29.2700m   10.3281m    9.2790m 
    5.86000n    4.8556    29.1427m   10.2747m    9.2216m 
    5.87000n    4.9047    29.0154m   10.2213m    9.1643m 
    5.88000n    4.9539    28.8881m   10.1679m    9.1070m 
    5.89000n    5.0031    28.7608m   10.1145m    9.0496m 
    5.90000n    5.0523    28.6334m   10.0611m    8.9923m 
    5.91000n    5.1015    28.5061m   10.0077m    8.9350m 
    5.92000n    5.1507    28.3788m    9.9543m    8.8776m 
    5.93000n    5.1999    28.2515m    9.9009m    8.8203m 
    5.94000n    5.2491    28.1242m    9.8475m    8.7630m 
    5.95000n    5.2983    27.9969m    9.7941m    8.7056m 
    5.96000n    5.3474    27.8696m    9.7407m    8.6483m 
    5.97000n    5.3966    27.7423m    9.6873m    8.5910m 
    5.98000n    5.4458    27.6150m    9.6339m    8.5336m 
    5.99000n    5.4950    27.4877m    9.5805m    8.4763m 
    6.00000n    5.5442    27.3604m    9.5271m    8.4190m 
    6.01000n    5.5934    27.2331m    9.4737m    8.3616m 
    6.02000n    5.6426    27.1057m    9.4203m    8.3043m 
    6.03000n    5.6918    26.9784m    9.3668m    8.2470m 
    6.04000n    5.7410    26.8511m    9.3134m    8.1896m 
    6.05000n    5.7901    26.7238m    9.2600m    8.1323m 
    6.06000n    5.8393    26.5965m    9.2066m    8.0750m 
    6.07000n    5.8885    26.4692m    9.1532m    8.0176m 
    6.08000n    5.9377    26.3419m    9.0998m    7.9603m 
    6.09000n    5.9869    26.2146m    9.0464m    7.9030m 
    6.10000n    6.0361    26.0873m    8.9930m    7.8456m 
    6.11000n    6.0853    25.9600m    8.9396m    7.7883m 
    6.12000n    6.1345    25.8327m    8.8862m    7.7310m 
    6.13000n    6.1837    25.7053m    8.8328m    7.6736m 
    6.14000n    6.2329    25.5780m    8.7794m    7.6163m 
    6.15000n    6.2820    25.4507m    8.7260m    7.5590m 
    6.16000n    6.3312    25.3234m    8.6726m    7.5016m 
    6.17000n    6.3804    25.1961m    8.6192m    7.4443m 
    6.18000n    6.4296    25.0688m    8.5658m    7.3870m 
    6.19000n    6.4788    24.9415m    8.5124m    7.3296m 
    6.20000n    6.5280    24.8142m    8.4590m    7.2723m 
    6.21000n    6.5772    24.6869m    8.4056m    7.2150m 
    6.22000n    6.6264    24.5596m    8.3522m    7.1576m 
    6.23000n    6.6756    24.4323m    8.2988m    7.1003m 
    6.24000n    6.7247    24.3050m    8.2454m    7.0430m 
    6.25000n    6.7739    24.1776m    8.1920m    6.9856m 
    6.26000n    6.8231    24.0503m    8.1386m    6.9283m 
    6.27000n    6.8723    23.9230m    8.0852m    6.8710m 
    6.28000n    6.9215    23.7957m    8.0318m    6.8136m 
    6.29000n    6.9707    23.6684m    7.9784m    6.7563m 
    6.30000n    7.0199    23.5411m    7.9250m    6.6990m 
    6.31000n    7.0691    23.4138m    7.8716m    6.6416m 
    6.32000n    7.1183    23.2865m    7.8182m    6.5843m 
    6.33000n    7.1674    23.1592m    7.7648m    6.5270m 
    6.34000n    7.2166    23.0319m    7.7114m    6.4696m 
    6.35000n    7.2658    22.9046m    7.6580m    6.4123m 
    6.36000n    7.3150    22.7772m    7.6046m    6.3550m 
    6.37000n    7.3642    22.6499m    7.5512m    6.2976m 
    6.38000n    7.4134    22.5226m    7.4978m    6.2403m 
    6.39000n    7.4626    22.3953m    7.4444m    6.1830m 
    6.40000n    7.5118    22.2680m    7.3910m    6.1256m 
    6.41000n    7.5610    22.1407m    7.3376m    6.0683m 
    6.42000n    7.6102    22.0134m    7.2842m    6.0110m 
    6.43000n    7.6593    21.8861m    7.2308m    5.9536m 
    6.44000n    7.7085    21.7588m    7.1774m    5.8963m 
    6.45000n    7.7577    21.6315m    7.1240m    5.8390m 
    6.46000n    7.8069    21.5042m    7.0706m    5.7816m 
    6.47000n    7.8561    21.3768m    7.0172m    5.7243m 
    6.48000n    7.9053    21.2495m    6.9638m    5.6670m 
    6.49000n    7.9545    21.1222m    6.9104m    5.6096m 
    6.50000n    8.0037    20.9949m    6.8570m    5.5523m 
    6.51000n    8.0324    20.8888m    6.8286m    5.5348m 
    6.52000n    8.0612    20.7828m    6.8002m    5.5173m 
    6.53000n    8.0899    20.6767m    6.7718m    5.4998m 
    6.54000n    8.1187    20.5706m    6.7433m    5.4823m 
    6.55000n    8.1474    20.4645m    6.7149m    5.4648m 
    6.56000n    8.1762    20.3584m    6.6865m    5.4473m 
    6.57000n    8.2049    20.2523m    6.6581m    5.4298m 
    6.58000n    8.2337    20.1462m    6.6296m    5.4123m 
    6.59000n    8.2624    20.0402m    6.6012m    5.3948m 
    6.60000n    8.2912    19.9341m    6.5728m    5.3773m 
    6.61000n    8.3199    19.8280m    6.5444m    5.3597m 
    6.62000n    8.3487    19.7219m    6.5160m    5.3422m 
    6.63000n    8.3774    19.6158m    6.4875m    5.3247m 
    6.64000n    8.4062    19.5097m    6.4591m    5.3072m 
    6.65000n    8.4349    19.4037m    6.4307m    5.2897m 
    6.66000n    8.4637    19.2976m    6.4023m    5.2722m 
    6.67000n    8.4924    19.1915m    6.3739m    5.2547m 
    6.68000n    8.5212    19.0854m    6.3454m    5.2372m 
    6.69000n    8.5499    18.9793m    6.3170m    5.2197m 
    6.70000n    8.5787    18.8732m    6.2886m    5.2022m 
    6.71000n    8.6074    18.7671m    6.2602m    5.1847m 
    6.72000n    8.6362    18.6611m    6.2318m    5.1672m 
    6.73000n    8.6649    18.5550m    6.2033m    5.1497m 
    6.74000n    8.6937    18.4489m    6.1749m    5.1322m 
    6.75000n    8.7224    18.3428m    6.1465m    5.1147m 
    6.76000n    8.7512    18.2367m    6.1181m    5.0972m 
    6.77000n    8.7799    18.1306m    6.0897m    5.0797m 
    6.78000n    8.8087    18.0246m    6.0612m    5.0622m 
    6.79000n    8.8374    17.9185m    6.0328m    5.0446m 
    6.80000n    8.8662    17.8124m    6.0044m    5.0271m 
    6.81000n    8.8949    17.7063m    5.9760m    5.0096m 
    6.82000n    8.9237    17.6002m    5.9475m    4.9921m 
    6.83000n    8.9524    17.4941m    5.9191m    4.9746m 
    6.84000n    8.9812    17.3881m    5.8907m    4.9571m 
    6.85000n    9.0099    17.2820m    5.8623m    4.9396m 
    6.86000n    9.0387    17.1759m    5.8339m    4.9221m 
    6.87000n    9.0674    17.0698m    5.8054m    4.9046m 
    6.88000n    9.0961    16.9637m    5.7770m    4.8871m 
    6.89000n    9.1249    16.8576m    5.7486m    4.8696m 
    6.90000n    9.1536    16.7515m    5.7202m    4.8521m 
    6.91000n    9.1824    16.6455m    5.6918m    4.8346m 
    6.92000n    9.2111    16.5394m    5.6633m    4.8171m 
    6.93000n    9.2399    16.4333m    5.6349m    4.7996m 
    6.94000n    9.2686    16.3272m    5.6065m    4.7821m 
    6.95000n    9.2974    16.2211m    5.5781m    4.7646m 
    6.96000n    9.3261    16.1150m    5.5497m    4.7471m 
    6.97000n    9.3549    16.0090m    5.5212m    4.7295m 
    6.98000n    9.3836    15.9029m    5.4928m    4.7120m 
    6.99000n    9.4124    15.7968m    5.4644m    4.6945m 
    7.00000n    9.4411    15.6907m    5.4360m    4.6770m 
    7.01000n    9.4563    15.3679m    5.2770m    4.4877m 
    7.02000n    9.4715    15.0451m    5.1180m    4.2984m 
    7.03000n    9.4866    14.7223m    4.9591m    4.1091m 
    7.04000n    9.5018    14.3996m    4.8001m    3.9198m 
    7.05000n    9.5169    14.0768m    4.6411m    3.7305m 
    7.06000n    9.5321    13.7540m    4.4821m    3.5412m 
    7.07000n    9.5473    13.4312m    4.3232m    3.3519m 
    7.08000n    9.5624    13.1084m    4.1642m    3.1626m 
    7.09000n    9.5776    12.7856m    4.0052m    2.9733m 
    7.10000n    9.5928    12.4628m    3.8462m    2.7840m 
    7.11000n    9.6079    12.1400m    3.6873m    2.5947m 
    7.12000n    9.6231    11.8173m    3.5283m    2.4054m 
    7.13000n    9.6382    11.4945m    3.3693m    2.2161m 
    7.14000n    9.6534    11.1717m    3.2103m    2.0268m 
    7.15000n    9.6686    10.8489m    3.0514m    1.8375m 
    7.16000n    9.6837    10.5261m    2.8924m    1.6482m 
    7.17000n    9.6989    10.2033m    2.7334m    1.4589m 
    7.18000n    9.7140     9.8805m    2.5744m    1.2696m 
    7.19000n    9.7292     9.5578m    2.4155m    1.0803m 
    7.20000n    9.7444     9.2350m    2.2565m  890.9668u 
    7.21000n    9.7595     8.9122m    2.0975m  701.6636u 
    7.22000n    9.7747     8.5894m    1.9385m  512.3605u 
    7.23000n    9.7898     8.2666m    1.7796m  323.0573u 
    7.24000n    9.8050     7.9438m    1.6206m  133.7542u 
    7.25000n    9.8202     7.6210m    1.4616m  -55.5489u 
    7.26000n    9.8353     7.2983m    1.3026m -244.8521u 
    7.27000n    9.8505     6.9755m    1.1437m -434.1552u 
    7.28000n    9.8657     6.6527m  984.6790u -623.4584u 
    7.29000n    9.8808     6.3299m  825.7041u -812.7615u 
    7.30000n    9.8960     6.0071m  666.7292u   -1.0021m 
    7.31000n    9.9111     5.6843m  507.7544u   -1.1914m 
    7.32000n    9.9263     5.3615m  348.7795u   -1.3807m 
    7.33000n    9.9415     5.0387m  189.8046u   -1.5700m 
    7.34000n    9.9566     4.7160m   30.8297u   -1.7593m 
    7.35000n    9.9676     4.4322m  -34.0500u   -1.8110m 
    7.36000n    9.9687     4.2412m  124.3221u   -1.5362m 
    7.37000n    9.9698     4.0501m  282.6942u   -1.2614m 
    7.38000n    9.9709     3.8590m  441.0662u -986.6246u 
    7.39000n    9.9720     3.6679m  599.4383u -711.8408u 
    7.40000n    9.9731     3.4768m  757.8104u -437.0570u 
    7.41000n    9.9742     3.2858m  916.1825u -162.2733u 
    7.42000n    9.9753     3.0947m    1.0746m  112.5105u 
    7.43000n    9.9764     2.9036m    1.2329m  387.2943u 
    7.44000n    9.9775     2.7125m    1.3913m  662.0781u 
    7.45000n    9.9786     2.5215m    1.5497m  936.8618u 
    7.46000n    9.9797     2.3304m    1.7080m    1.2116m 
    7.47000n    9.9808     2.1393m    1.8664m    1.4864m 
    7.48000n    9.9819     1.9482m    2.0248m    1.7612m 
    7.49000n    9.9830     1.7572m    2.1832m    2.0360m 
    7.50000n    9.9842     1.5661m    2.3415m    2.3108m 
    7.51000n    9.9805     1.4358m    2.2159m    2.1842m 
    7.52000n    9.9768     1.3054m    2.0902m    2.0575m 
    7.53000n    9.9731     1.1751m    1.9645m    1.9309m 
    7.54000n    9.9694     1.0448m    1.8389m    1.8043m 
    7.55000n    9.9657   914.4726u    1.7132m    1.6776m 
    7.56000n    9.9620   784.1508u    1.5876m    1.5510m 
    7.57000n    9.9583   653.8289u    1.4619m    1.4244m 
    7.58000n    9.9546   523.5070u    1.3362m    1.2977m 
    7.59000n    9.9509   393.1851u    1.2106m    1.1711m 
    7.60000n    9.9472   262.8633u    1.0849m    1.0445m 
    7.61000n    9.9435   132.5414u  959.2459u  917.8600u 
    7.62000n    9.9398     2.2195u  833.5836u  791.2308u 
    7.63000n    9.9361  -128.1023u  707.9213u  664.6017u 
    7.64000n    9.9324  -258.4242u  582.2590u  537.9725u 
    7.65000n    9.9288  -388.7461u  456.5968u  411.3433u 
    7.66000n    9.9251  -519.0679u  330.9345u  284.7142u 
    7.67000n    9.9214  -649.3898u  205.2722u  158.0850u 
    7.68000n    9.9177  -779.7117u   79.6099u   31.4558u 
    7.69000n    9.9140  -910.0336u  -46.0524u  -95.1733u 
    7.70000n    9.9103    -1.0404m -171.7147u -221.8025u 
    7.71000n    9.9066    -1.1707m -297.3770u -348.4316u 
    7.72000n    9.9029    -1.3010m -423.0393u -475.0608u 
    7.73000n    9.8992    -1.4313m -548.7016u -601.6900u 
    7.74000n    9.8955    -1.5616m -674.3638u -728.3191u 
    7.75000n    9.8852    -1.7457m -790.5311u -857.5554u 
    7.76000n    9.8689    -1.9783m -898.1280u -989.1450u 
    7.77000n    9.8527    -2.2109m   -1.0057m   -1.1207m 
    7.78000n    9.8364    -2.4435m   -1.1133m   -1.2523m 
    7.79000n    9.8201    -2.6761m   -1.2209m   -1.3839m 
    7.80000n    9.8038    -2.9087m   -1.3285m   -1.5155m 
    7.81000n    9.7876    -3.1413m   -1.4361m   -1.6471m 
    7.82000n    9.7713    -3.3739m   -1.5437m   -1.7787m 
    7.83000n    9.7550    -3.6065m   -1.6513m   -1.9103m 
    7.84000n    9.7387    -3.8391m   -1.7589m   -2.0419m 
    7.85000n    9.7225    -4.0717m   -1.8665m   -2.1735m 
    7.86000n    9.7062    -4.3043m   -1.9741m   -2.3050m 
    7.87000n    9.6899    -4.5369m   -2.0817m   -2.4366m 
    7.88000n    9.6736    -4.7695m   -2.1893m   -2.5682m 
    7.89000n    9.6573    -5.0021m   -2.2969m   -2.6998m 
    7.90000n    9.6411    -5.2347m   -2.4045m   -2.8314m 
    7.91000n    9.6248    -5.4673m   -2.5121m   -2.9630m 
    7.92000n    9.6085    -5.6999m   -2.6197m   -3.0946m 
    7.93000n    9.5922    -5.9325m   -2.7273m   -3.2262m 
    7.94000n    9.5760    -6.1651m   -2.8349m   -3.3578m 
    7.95000n    9.5597    -6.3977m   -2.9425m   -3.4893m 
    7.96000n    9.5434    -6.6303m   -3.0501m   -3.6209m 
    7.97000n    9.5271    -6.8629m   -3.1577m   -3.7525m 
    7.98000n    9.5109    -7.0955m   -3.2653m   -3.8841m 
    7.99000n    9.4946    -7.3281m   -3.3729m   -4.0157m 
    8.00000n    9.4783    -7.5607m   -3.4805m   -4.1473m 
    8.01000n    9.4620    -7.7933m   -3.5881m   -4.2789m 
    8.02000n    9.4458    -8.0260m   -3.6956m   -4.4105m 
    8.03000n    9.4295    -8.2586m   -3.8032m   -4.5421m 
    8.04000n    9.4132    -8.4912m   -3.9108m   -4.6737m 
    8.05000n    9.3969    -8.7238m   -4.0184m   -4.8052m 
    8.06000n    9.3807    -8.9564m   -4.1260m   -4.9368m 
    8.07000n    9.3644    -9.1890m   -4.2336m   -5.0684m 
    8.08000n    9.3481    -9.4216m   -4.3412m   -5.2000m 
    8.09000n    9.3318    -9.6542m   -4.4488m   -5.3316m 
    8.10000n    9.3156    -9.8868m   -4.5564m   -5.4632m 
    8.11000n    9.2993   -10.1194m   -4.6640m   -5.5948m 
    8.12000n    9.2830   -10.3520m   -4.7716m   -5.7264m 
    8.13000n    9.2667   -10.5846m   -4.8792m   -5.8580m 
    8.14000n    9.2505   -10.8172m   -4.9868m   -5.9895m 
    8.15000n    9.2342   -11.0498m   -5.0944m   -6.1211m 
    8.16000n    9.2179   -11.2824m   -5.2020m   -6.2527m 
    8.17000n    9.2016   -11.5150m   -5.3096m   -6.3843m 
    8.18000n    9.1853   -11.7476m   -5.4172m   -6.5158m 
    8.19000n    9.1536   -11.9463m   -5.4201m   -6.4573m 
    8.20000n    9.1219   -12.1450m   -5.4230m   -6.3988m 
    8.21000n    9.0901   -12.3437m   -5.4259m   -6.3403m 
    8.22000n    9.0584   -12.5424m   -5.4289m   -6.2817m 
    8.23000n    9.0267   -12.7411m   -5.4318m   -6.2232m 
    8.24000n    8.9949   -12.9398m   -5.4347m   -6.1647m 
    8.25000n    8.9632   -13.1385m   -5.4377m   -6.1061m 
    8.26000n    8.9315   -13.3372m   -5.4406m   -6.0476m 
    8.27000n    8.8997   -13.5360m   -5.4435m   -5.9891m 
    8.28000n    8.8680   -13.7347m   -5.4465m   -5.9306m 
    8.29000n    8.8363   -13.9334m   -5.4494m   -5.8720m 
    8.30000n    8.8045   -14.1321m   -5.4523m   -5.8135m 
    8.31000n    8.7728   -14.3308m   -5.4552m   -5.7550m 
    8.32000n    8.7411   -14.5295m   -5.4582m   -5.6965m 
    8.33000n    8.7093   -14.7282m   -5.4611m   -5.6379m 
    8.34000n    8.6776   -14.9269m   -5.4640m   -5.5794m 
    8.35000n    8.6459   -15.1256m   -5.4670m   -5.5209m 
    8.36000n    8.6141   -15.3244m   -5.4699m   -5.4623m 
    8.37000n    8.5824   -15.5231m   -5.4728m   -5.4038m 
    8.38000n    8.5507   -15.7218m   -5.4758m   -5.3453m 
    8.39000n    8.5189   -15.9205m   -5.4787m   -5.2868m 
    8.40000n    8.4872   -16.1192m   -5.4816m   -5.2282m 
    8.41000n    8.4555   -16.3179m   -5.4845m   -5.1697m 
    8.42000n    8.4237   -16.5166m   -5.4875m   -5.1112m 
    8.43000n    8.3920   -16.7153m   -5.4904m   -5.0527m 
    8.44000n    8.3603   -16.9141m   -5.4933m   -4.9941m 
    8.45000n    8.3285   -17.1128m   -5.4963m   -4.9356m 
    8.46000n    8.2968   -17.3115m   -5.4992m   -4.8771m 
    8.47000n    8.2651   -17.5102m   -5.5021m   -4.8185m 
    8.48000n    8.2333   -17.7089m   -5.5050m   -4.7600m 
    8.49000n    8.2016   -17.9076m   -5.5080m   -4.7015m 
    8.50000n    8.1699   -18.1063m   -5.5109m   -4.6430m 
    8.51000n    8.1261   -18.1859m   -5.5621m   -4.7028m 
    8.52000n    8.0823   -18.2655m   -5.6133m   -4.7627m 
    8.53000n    8.0385   -18.3451m   -5.6646m   -4.8225m 
    8.54000n    7.9948   -18.4246m   -5.7158m   -4.8824m 
    8.55000n    7.9510   -18.5042m   -5.7670m   -4.9423m 
    8.56000n    7.9072   -18.5838m   -5.8182m   -5.0021m 
    8.57000n    7.8634   -18.6634m   -5.8694m   -5.0620m 
    8.58000n    7.8196   -18.7430m   -5.9207m   -5.1218m 
    8.59000n    7.7759   -18.8225m   -5.9719m   -5.1817m 
    8.60000n    7.7321   -18.9021m   -6.0231m   -5.2416m 
    8.61000n    7.6883   -18.9817m   -6.0743m   -5.3014m 
    8.62000n    7.6445   -19.0613m   -6.1255m   -5.3613m 
    8.63000n    7.6008   -19.1409m   -6.1768m   -5.4211m 
    8.64000n    7.5570   -19.2204m   -6.2280m   -5.4810m 
    8.65000n    7.5132   -19.3000m   -6.2792m   -5.5409m 
    8.66000n    7.4694   -19.3796m   -6.3304m   -5.6007m 
    8.67000n    7.4256   -19.4592m   -6.3816m   -5.6606m 
    8.68000n    7.3819   -19.5388m   -6.4329m   -5.7204m 
    8.69000n    7.3381   -19.6183m   -6.4841m   -5.7803m 
    8.70000n    7.2943   -19.6979m   -6.5353m   -5.8402m 
    8.71000n    7.2505   -19.7775m   -6.5865m   -5.9000m 
    8.72000n    7.2067   -19.8571m   -6.6377m   -5.9599m 
    8.73000n    7.1630   -19.9367m   -6.6890m   -6.0197m 
    8.74000n    7.1192   -20.0162m   -6.7402m   -6.0796m 
    8.75000n    7.0754   -20.0958m   -6.7914m   -6.1395m 
    8.76000n    7.0316   -20.1754m   -6.8426m   -6.1993m 
    8.77000n    6.9879   -20.2550m   -6.8938m   -6.2592m 
    8.78000n    6.9441   -20.3345m   -6.9451m   -6.3190m 
    8.79000n    6.9003   -20.4141m   -6.9963m   -6.3789m 
    8.80000n    6.8565   -20.4937m   -7.0475m   -6.4388m 
    8.81000n    6.8127   -20.5733m   -7.0987m   -6.4986m 
    8.82000n    6.7690   -20.6529m   -7.1499m   -6.5585m 
    8.83000n    6.7252   -20.7324m   -7.2012m   -6.6183m 
    8.84000n    6.6814   -20.8120m   -7.2524m   -6.6782m 
    8.85000n    6.6376   -20.8916m   -7.3036m   -6.7381m 
    8.86000n    6.5939   -20.9712m   -7.3548m   -6.7979m 
    8.87000n    6.5501   -21.0508m   -7.4060m   -6.8578m 
    8.88000n    6.5063   -21.1303m   -7.4573m   -6.9176m 
    8.89000n    6.4625   -21.2099m   -7.5085m   -6.9775m 
    8.90000n    6.4187   -21.2895m   -7.5597m   -7.0374m 
    8.91000n    6.3750   -21.3691m   -7.6109m   -7.0972m 
    8.92000n    6.3312   -21.4487m   -7.6621m   -7.1571m 
    8.93000n    6.2874   -21.5282m   -7.7134m   -7.2170m 
    8.94000n    6.2436   -21.6078m   -7.7646m   -7.2768m 
    8.95000n    6.1998   -21.6874m   -7.8158m   -7.3367m 
    8.96000n    6.1561   -21.7670m   -7.8670m   -7.3965m 
    8.97000n    6.1123   -21.8466m   -7.9182m   -7.4564m 
    8.98000n    6.0685   -21.9261m   -7.9695m   -7.5163m 
    8.99000n    6.0247   -22.0057m   -8.0207m   -7.5761m 
    9.00000n    5.9810   -22.0853m   -8.0719m   -7.6360m 
    9.01000n    5.9372   -22.1649m   -8.1231m   -7.6958m 
    9.02000n    5.8860   -22.3550m   -8.2166m   -7.8091m 
    9.03000n    5.8330   -22.5728m   -8.3207m   -7.9358m 
    9.04000n    5.7800   -22.7906m   -8.4248m   -8.0624m 
    9.05000n    5.7270   -23.0084m   -8.5289m   -8.1891m 
    9.06000n    5.6740   -23.2261m   -8.6330m   -8.3158m 
    9.07000n    5.6210   -23.4439m   -8.7371m   -8.4424m 
    9.08000n    5.5680   -23.6617m   -8.8412m   -8.5691m 
    9.09000n    5.5150   -23.8795m   -8.9453m   -8.6958m 
    9.10000n    5.4619   -24.0973m   -9.0494m   -8.8224m 
    9.11000n    5.4089   -24.3151m   -9.1535m   -8.9491m 
    9.12000n    5.3559   -24.5329m   -9.2576m   -9.0758m 
    9.13000n    5.3029   -24.7507m   -9.3617m   -9.2024m 
    9.14000n    5.2499   -24.9685m   -9.4658m   -9.3291m 
    9.15000n    5.1969   -25.1863m   -9.5699m   -9.4558m 
    9.16000n    5.1439   -25.4041m   -9.6740m   -9.5824m 
    9.17000n    5.0909   -25.6219m   -9.7781m   -9.7091m 
    9.18000n    5.0379   -25.8397m   -9.8822m   -9.8357m 
    9.19000n    4.9849   -26.0575m   -9.9863m   -9.9624m 
    9.20000n    4.9318   -26.2753m  -10.0904m  -10.0891m 
    9.21000n    4.8788   -26.4931m  -10.1945m  -10.2157m 
    9.22000n    4.8258   -26.7109m  -10.2986m  -10.3424m 
    9.23000n    4.7728   -26.9287m  -10.4027m  -10.4691m 
    9.24000n    4.7198   -27.1465m  -10.5068m  -10.5957m 
    9.25000n    4.6668   -27.3643m  -10.6109m  -10.7224m 
    9.26000n    4.6138   -27.5821m  -10.7150m  -10.8491m 
    9.27000n    4.5608   -27.7999m  -10.8191m  -10.9757m 
    9.28000n    4.5078   -28.0177m  -10.9232m  -11.1024m 
    9.29000n    4.4548   -28.2355m  -11.0273m  -11.2291m 
    9.30000n    4.4018   -28.4533m  -11.1314m  -11.3557m 
    9.31000n    4.3487   -28.6711m  -11.2355m  -11.4824m 
    9.32000n    4.2957   -28.8889m  -11.3396m  -11.6091m 
    9.33000n    4.2427   -29.1067m  -11.4437m  -11.7357m 
    9.34000n    4.1897   -29.3245m  -11.5478m  -11.8624m 
    9.35000n    4.1367   -29.5423m  -11.6519m  -11.9891m 
    9.36000n    4.0779   -29.6501m  -11.6743m  -11.9951m 
    9.37000n    4.0164   -29.7061m  -11.6581m  -11.9443m 
    9.38000n    3.9549   -29.7620m  -11.6418m  -11.8934m 
    9.39000n    3.8934   -29.8179m  -11.6256m  -11.8426m 
    9.40000n    3.8318   -29.8738m  -11.6094m  -11.7917m 
    9.41000n    3.7703   -29.9297m  -11.5931m  -11.7409m 
    9.42000n    3.7088   -29.9856m  -11.5769m  -11.6901m 
    9.43000n    3.6473   -30.0416m  -11.5607m  -11.6392m 
    9.44000n    3.5858   -30.0975m  -11.5444m  -11.5884m 
    9.45000n    3.5242   -30.1534m  -11.5282m  -11.5375m 
    9.46000n    3.4627   -30.2093m  -11.5120m  -11.4867m 
    9.47000n    3.4012   -30.2652m  -11.4957m  -11.4358m 
    9.48000n    3.3397   -30.3211m  -11.4795m  -11.3850m 
    9.49000n    3.2782   -30.3771m  -11.4633m  -11.3341m 
    9.50000n    3.2166   -30.4330m  -11.4470m  -11.2833m 
    9.51000n    3.1551   -30.4889m  -11.4308m  -11.2324m 
    9.52000n    3.0936   -30.5448m  -11.4146m  -11.1816m 
    9.53000n    3.0321   -30.6007m  -11.3983m  -11.1307m 
    9.54000n    2.9706   -30.6567m  -11.3821m  -11.0799m 
    9.55000n    2.9090   -30.7126m  -11.3659m  -11.0290m 
    9.56000n    2.8475   -30.7685m  -11.3496m  -10.9782m 
    9.57000n    2.7860   -30.8244m  -11.3334m  -10.9273m 
    9.58000n    2.7245   -30.8803m  -11.3172m  -10.8765m 
    9.59000n    2.6630   -30.9362m  -11.3009m  -10.8256m 
    9.60000n    2.6014   -30.9922m  -11.2847m  -10.7748m 
    9.61000n    2.5399   -31.0481m  -11.2685m  -10.7240m 
    9.62000n    2.4784   -31.1040m  -11.2522m  -10.6731m 
    9.63000n    2.4169   -31.1599m  -11.2360m  -10.6223m 
    9.64000n    2.3554   -31.2158m  -11.2198m  -10.5714m 
    9.65000n    2.2938   -31.2717m  -11.2036m  -10.5206m 
    9.66000n    2.2323   -31.3277m  -11.1873m  -10.4697m 
    9.67000n    2.1708   -31.3836m  -11.1711m  -10.4189m 
    9.68000n    2.1093   -31.4395m  -11.1549m  -10.3680m 
    9.69000n    2.0478   -31.4954m  -11.1386m  -10.3172m 
    9.70000n    1.9862   -31.5513m  -11.1224m  -10.2663m 
    9.71000n    1.9247   -31.6073m  -11.1062m  -10.2155m 
    9.72000n    1.8632   -31.6632m  -11.0899m  -10.1646m 
    9.73000n    1.8017   -31.7191m  -11.0737m  -10.1138m 
    9.74000n    1.7402   -31.7750m  -11.0575m  -10.0629m 
    9.75000n    1.6787   -31.8309m  -11.0412m  -10.0121m 
    9.76000n    1.6171   -31.8868m  -11.0250m   -9.9612m 
    9.77000n    1.5556   -31.9428m  -11.0088m   -9.9104m 
    9.78000n    1.4941   -31.9987m  -10.9925m   -9.8595m 
    9.79000n    1.4326   -32.0546m  -10.9763m   -9.8087m 
    9.80000n    1.3711   -32.1105m  -10.9601m   -9.7579m 
    9.81000n    1.3095   -32.1664m  -10.9438m   -9.7070m 
    9.82000n    1.2480   -32.2223m  -10.9276m   -9.6562m 
    9.83000n    1.1865   -32.2783m  -10.9114m   -9.6053m 
    9.84000n    1.1250   -32.3342m  -10.8951m   -9.5545m 
    9.85000n    1.0635   -32.3901m  -10.8789m   -9.5036m 
    9.86000n    1.0019   -32.4460m  -10.8627m   -9.4528m 
    9.87000n  940.4155m  -32.5019m  -10.8464m   -9.4019m 
    9.88000n  878.8958m  -32.5579m  -10.8302m   -9.3511m 
    9.89000n  817.3761m  -32.6138m  -10.8140m   -9.3002m 
    9.90000n  755.8565m  -32.6697m  -10.7977m   -9.2494m 
    9.91000n  694.3368m  -32.7256m  -10.7815m   -9.1985m 
    9.92000n  632.8171m  -32.7815m  -10.7653m   -9.1477m 
    9.93000n  571.2974m  -32.8374m  -10.7491m   -9.0968m 
    9.94000n  509.7778m  -32.8934m  -10.7328m   -9.0460m 
    9.95000n  448.2581m  -32.9493m  -10.7166m   -8.9951m 
    9.96000n  386.7384m  -33.0052m  -10.7004m   -8.9443m 
    9.97000n  325.2188m  -33.0611m  -10.6841m   -8.8934m 
    9.98000n  263.6991m  -33.1170m  -10.6679m   -8.8426m 
    9.99000n  202.1794m  -33.1729m  -10.6517m   -8.7918m 
   10.00000n  140.6598m  -33.2289m  -10.6354m   -8.7409m 
   10.01000n   79.8498m  -33.2063m  -10.6462m   -8.7653m 
   10.02000n   19.0397m  -33.1837m  -10.6569m   -8.7898m 
   10.03000n  -41.7703m  -33.1611m  -10.6676m   -8.8142m 
   10.04000n -102.5803m  -33.1385m  -10.6783m   -8.8387m 
   10.05000n -163.3903m  -33.1160m  -10.6891m   -8.8631m 
   10.06000n -224.2003m  -33.0934m  -10.6998m   -8.8875m 
   10.07000n -285.0103m  -33.0708m  -10.7105m   -8.9120m 
   10.08000n -345.8203m  -33.0482m  -10.7212m   -8.9364m 
   10.09000n -406.6303m  -33.0256m  -10.7320m   -8.9609m 
   10.10000n -467.4403m  -33.0030m  -10.7427m   -8.9853m 
   10.11000n -528.2503m  -32.9805m  -10.7534m   -9.0097m 
   10.12000n -589.0603m  -32.9579m  -10.7641m   -9.0342m 
   10.13000n -649.8703m  -32.9353m  -10.7749m   -9.0586m 
   10.14000n -710.6803m  -32.9127m  -10.7856m   -9.0830m 
   10.15000n -771.4903m  -32.8901m  -10.7963m   -9.1075m 
   10.16000n -832.3004m  -32.8675m  -10.8070m   -9.1319m 
   10.17000n -893.1104m  -32.8450m  -10.8178m   -9.1564m 
   10.18000n -953.9204m  -32.8224m  -10.8285m   -9.1808m 
   10.19000n   -1.0147   -32.7998m  -10.8392m   -9.2052m 
   10.20000n   -1.0755   -32.7772m  -10.8499m   -9.2297m 
   10.21000n   -1.1364   -32.7546m  -10.8606m   -9.2541m 
   10.22000n   -1.1972   -32.7320m  -10.8714m   -9.2786m 
   10.23000n   -1.2580   -32.7095m  -10.8821m   -9.3030m 
   10.24000n   -1.3188   -32.6869m  -10.8928m   -9.3274m 
   10.25000n   -1.3796   -32.6643m  -10.9035m   -9.3519m 
   10.26000n   -1.4404   -32.6417m  -10.9143m   -9.3763m 
   10.27000n   -1.5012   -32.6191m  -10.9250m   -9.4007m 
   10.28000n   -1.5620   -32.5965m  -10.9357m   -9.4252m 
   10.29000n   -1.6228   -32.5740m  -10.9464m   -9.4496m 
   10.30000n   -1.6836   -32.5514m  -10.9572m   -9.4741m 
   10.31000n   -1.7445   -32.5288m  -10.9679m   -9.4985m 
   10.32000n   -1.8053   -32.5062m  -10.9786m   -9.5229m 
   10.33000n   -1.8661   -32.4836m  -10.9893m   -9.5474m 
   10.34000n   -1.9269   -32.4610m  -11.0001m   -9.5718m 
   10.35000n   -1.9877   -32.4385m  -11.0108m   -9.5963m 
   10.36000n   -2.0485   -32.4159m  -11.0215m   -9.6207m 
   10.37000n   -2.1093   -32.3933m  -11.0322m   -9.6451m 
   10.38000n   -2.1701   -32.3707m  -11.0430m   -9.6696m 
   10.39000n   -2.2309   -32.3481m  -11.0537m   -9.6940m 
   10.40000n   -2.2917   -32.3255m  -11.0644m   -9.7184m 
   10.41000n   -2.3526   -32.3030m  -11.0751m   -9.7429m 
   10.42000n   -2.4134   -32.2804m  -11.0859m   -9.7673m 
   10.43000n   -2.4742   -32.2578m  -11.0966m   -9.7918m 
   10.44000n   -2.5350   -32.2352m  -11.1073m   -9.8162m 
   10.45000n   -2.5958   -32.2126m  -11.1180m   -9.8406m 
   10.46000n   -2.6566   -32.1900m  -11.1288m   -9.8651m 
   10.47000n   -2.7174   -32.1675m  -11.1395m   -9.8895m 
   10.48000n   -2.7782   -32.1449m  -11.1502m   -9.9140m 
   10.49000n   -2.8390   -32.1223m  -11.1609m   -9.9384m 
   10.50000n   -2.8998   -32.0997m  -11.1717m   -9.9628m 
   10.51000n   -2.9607   -32.0771m  -11.1824m   -9.9873m 
   10.52000n   -3.0215   -32.0545m  -11.1931m  -10.0117m 
   10.53000n   -3.0823   -32.0320m  -11.2038m  -10.0362m 
   10.54000n   -3.1431   -32.0094m  -11.2146m  -10.0606m 
   10.55000n   -3.2039   -31.9868m  -11.2253m  -10.0850m 
   10.56000n   -3.2647   -31.9642m  -11.2360m  -10.1095m 
   10.57000n   -3.3255   -31.9416m  -11.2467m  -10.1339m 
   10.58000n   -3.3863   -31.9191m  -11.2575m  -10.1583m 
   10.59000n   -3.4471   -31.8965m  -11.2682m  -10.1828m 
   10.60000n   -3.5079   -31.8739m  -11.2789m  -10.2072m 
   10.61000n   -3.5688   -31.8513m  -11.2896m  -10.2317m 
   10.62000n   -3.6296   -31.8287m  -11.3004m  -10.2561m 
   10.63000n   -3.6904   -31.8061m  -11.3111m  -10.2805m 
   10.64000n   -3.7512   -31.7836m  -11.3218m  -10.3050m 
   10.65000n   -3.8120   -31.7610m  -11.3325m  -10.3294m 
   10.66000n   -3.8728   -31.7384m  -11.3433m  -10.3539m 
   10.67000n   -3.9336   -31.7158m  -11.3540m  -10.3783m 
   10.68000n   -3.9862   -31.6179m  -11.3189m  -10.3444m 
   10.69000n   -4.0352   -31.4873m  -11.2638m  -10.2851m 
   10.70000n   -4.0842   -31.3567m  -11.2087m  -10.2258m 
   10.71000n   -4.1332   -31.2260m  -11.1537m  -10.1665m 
   10.72000n   -4.1822   -31.0954m  -11.0986m  -10.1073m 
   10.73000n   -4.2312   -30.9648m  -11.0436m  -10.0480m 
   10.74000n   -4.2802   -30.8341m  -10.9885m   -9.9887m 
   10.75000n   -4.3292   -30.7035m  -10.9334m   -9.9294m 
   10.76000n   -4.3782   -30.5728m  -10.8784m   -9.8701m 
   10.77000n   -4.4272   -30.4422m  -10.8233m   -9.8108m 
   10.78000n   -4.4762   -30.3116m  -10.7682m   -9.7515m 
   10.79000n   -4.5252   -30.1809m  -10.7132m   -9.6923m 
   10.80000n   -4.5742   -30.0503m  -10.6581m   -9.6330m 
   10.81000n   -4.6232   -29.9197m  -10.6031m   -9.5737m 
   10.82000n   -4.6722   -29.7890m  -10.5480m   -9.5144m 
   10.83000n   -4.7213   -29.6584m  -10.4929m   -9.4551m 
   10.84000n   -4.7703   -29.5278m  -10.4379m   -9.3958m 
   10.85000n   -4.8193   -29.3971m  -10.3828m   -9.3366m 
   10.86000n   -4.8683   -29.2665m  -10.3277m   -9.2773m 
   10.87000n   -4.9173   -29.1359m  -10.2727m   -9.2180m 
   10.88000n   -4.9663   -29.0052m  -10.2176m   -9.1587m 
   10.89000n   -5.0153   -28.8746m  -10.1626m   -9.0994m 
   10.90000n   -5.0643   -28.7439m  -10.1075m   -9.0401m 
   10.91000n   -5.1133   -28.6133m  -10.0524m   -8.9808m 
   10.92000n   -5.1623   -28.4827m   -9.9974m   -8.9216m 
   10.93000n   -5.2113   -28.3520m   -9.9423m   -8.8623m 
   10.94000n   -5.2603   -28.2214m   -9.8872m   -8.8030m 
   10.95000n   -5.3093   -28.0908m   -9.8322m   -8.7437m 
   10.96000n   -5.3583   -27.9601m   -9.7771m   -8.6844m 
   10.97000n   -5.4073   -27.8295m   -9.7221m   -8.6251m 
   10.98000n   -5.4563   -27.6989m   -9.6670m   -8.5658m 
   10.99000n   -5.5053   -27.5682m   -9.6119m   -8.5066m 
   11.00000n   -5.5543   -27.4376m   -9.5569m   -8.4473m 
   11.01000n   -5.6033   -27.3070m   -9.5018m   -8.3880m 
   11.02000n   -5.6523   -27.1763m   -9.4467m   -8.3287m 
   11.03000n   -5.7013   -27.0457m   -9.3917m   -8.2694m 
   11.04000n   -5.7503   -26.9150m   -9.3366m   -8.2101m 
   11.05000n   -5.7993   -26.7844m   -9.2816m   -8.1509m 
   11.06000n   -5.8483   -26.6538m   -9.2265m   -8.0916m 
   11.07000n   -5.8973   -26.5231m   -9.1714m   -8.0323m 
   11.08000n   -5.9463   -26.3925m   -9.1164m   -7.9730m 
   11.09000n   -5.9953   -26.2619m   -9.0613m   -7.9137m 
   11.10000n   -6.0444   -26.1312m   -9.0062m   -7.8544m 
   11.11000n   -6.0934   -26.0006m   -8.9512m   -7.7951m 
   11.12000n   -6.1424   -25.8700m   -8.8961m   -7.7359m 
   11.13000n   -6.1914   -25.7393m   -8.8411m   -7.6766m 
   11.14000n   -6.2404   -25.6087m   -8.7860m   -7.6173m 
   11.15000n   -6.2894   -25.4781m   -8.7309m   -7.5580m 
   11.16000n   -6.3384   -25.3474m   -8.6759m   -7.4987m 
   11.17000n   -6.3874   -25.2168m   -8.6208m   -7.4394m 
   11.18000n   -6.4364   -25.0861m   -8.5657m   -7.3802m 
   11.19000n   -6.4854   -24.9555m   -8.5107m   -7.3209m 
   11.20000n   -6.5344   -24.8249m   -8.4556m   -7.2616m 
   11.21000n   -6.5834   -24.6942m   -8.4006m   -7.2023m 
   11.22000n   -6.6324   -24.5636m   -8.3455m   -7.1430m 
   11.23000n   -6.6814   -24.4330m   -8.2904m   -7.0837m 
   11.24000n   -6.7304   -24.3023m   -8.2354m   -7.0244m 
   11.25000n   -6.7794   -24.1717m   -8.1803m   -6.9652m 
   11.26000n   -6.8284   -24.0411m   -8.1252m   -6.9059m 
   11.27000n   -6.8774   -23.9104m   -8.0702m   -6.8466m 
   11.28000n   -6.9264   -23.7798m   -8.0151m   -6.7873m 
   11.29000n   -6.9754   -23.6492m   -7.9601m   -6.7280m 
   11.30000n   -7.0244   -23.5185m   -7.9050m   -6.6687m 
   11.31000n   -7.0734   -23.3879m   -7.8499m   -6.6095m 
   11.32000n   -7.1224   -23.2573m   -7.7949m   -6.5502m 
   11.33000n   -7.1714   -23.1266m   -7.7398m   -6.4909m 
   11.34000n   -7.2204   -22.9960m   -7.6847m   -6.4316m 
   11.35000n   -7.2694   -22.8653m   -7.6297m   -6.3723m 
   11.36000n   -7.3185   -22.7347m   -7.5746m   -6.3130m 
   11.37000n   -7.3675   -22.6041m   -7.5196m   -6.2537m 
   11.38000n   -7.4165   -22.4734m   -7.4645m   -6.1945m 
   11.39000n   -7.4655   -22.3428m   -7.4094m   -6.1352m 
   11.40000n   -7.5145   -22.2122m   -7.3544m   -6.0759m 
   11.41000n   -7.5635   -22.0815m   -7.2993m   -6.0166m 
   11.42000n   -7.6125   -21.9509m   -7.2442m   -5.9573m 
   11.43000n   -7.6615   -21.8203m   -7.1892m   -5.8980m 
   11.44000n   -7.7105   -21.6896m   -7.1341m   -5.8388m 
   11.45000n   -7.7595   -21.5590m   -7.0791m   -5.7795m 
   11.46000n   -7.8085   -21.4284m   -7.0240m   -5.7202m 
   11.47000n   -7.8575   -21.2977m   -6.9689m   -5.6609m 
   11.48000n   -7.9065   -21.1671m   -6.9139m   -5.6016m 
   11.49000n   -7.9555   -21.0364m   -6.8588m   -5.5423m 
   11.50000n   -8.0045   -20.9058m   -6.8037m   -5.4830m 
   11.51000n   -8.0332   -20.8012m   -6.7764m   -5.4670m 
   11.52000n   -8.0620   -20.6965m   -6.7490m   -5.4510m 
   11.53000n   -8.0907   -20.5919m   -6.7217m   -5.4350m 
   11.54000n   -8.1194   -20.4872m   -6.6943m   -5.4189m 
   11.55000n   -8.1482   -20.3825m   -6.6669m   -5.4029m 
   11.56000n   -8.1769   -20.2779m   -6.6396m   -5.3869m 
   11.57000n   -8.2056   -20.1732m   -6.6122m   -5.3709m 
   11.58000n   -8.2344   -20.0686m   -6.5848m   -5.3548m 
   11.59000n   -8.2631   -19.9639m   -6.5575m   -5.3388m 
   11.60000n   -8.2918   -19.8593m   -6.5301m   -5.3228m 
   11.61000n   -8.3206   -19.7546m   -6.5028m   -5.3068m 
   11.62000n   -8.3493   -19.6500m   -6.4754m   -5.2907m 
   11.63000n   -8.3780   -19.5453m   -6.4480m   -5.2747m 
   11.64000n   -8.4068   -19.4407m   -6.4207m   -5.2587m 
   11.65000n   -8.4355   -19.3360m   -6.3933m   -5.2426m 
   11.66000n   -8.4642   -19.2314m   -6.3659m   -5.2266m 
   11.67000n   -8.4930   -19.1267m   -6.3386m   -5.2106m 
   11.68000n   -8.5217   -19.0221m   -6.3112m   -5.1946m 
   11.69000n   -8.5504   -18.9174m   -6.2839m   -5.1785m 
   11.70000n   -8.5792   -18.8128m   -6.2565m   -5.1625m 
   11.71000n   -8.6079   -18.7081m   -6.2291m   -5.1465m 
   11.72000n   -8.6366   -18.6035m   -6.2018m   -5.1305m 
   11.73000n   -8.6654   -18.4988m   -6.1744m   -5.1144m 
   11.74000n   -8.6941   -18.3942m   -6.1470m   -5.0984m 
   11.75000n   -8.7228   -18.2895m   -6.1197m   -5.0824m 
   11.76000n   -8.7516   -18.1849m   -6.0923m   -5.0664m 
   11.77000n   -8.7803   -18.0802m   -6.0649m   -5.0503m 
   11.78000n   -8.8090   -17.9756m   -6.0376m   -5.0343m 
   11.79000n   -8.8377   -17.8709m   -6.0102m   -5.0183m 
   11.80000n   -8.8665   -17.7662m   -5.9829m   -5.0022m 
   11.81000n   -8.8952   -17.6616m   -5.9555m   -4.9862m 
   11.82000n   -8.9239   -17.5569m   -5.9281m   -4.9702m 
   11.83000n   -8.9527   -17.4523m   -5.9008m   -4.9542m 
   11.84000n   -8.9814   -17.3476m   -5.8734m   -4.9381m 
   11.85000n   -9.0101   -17.2430m   -5.8460m   -4.9221m 
   11.86000n   -9.0389   -17.1383m   -5.8187m   -4.9061m 
   11.87000n   -9.0676   -17.0337m   -5.7913m   -4.8901m 
   11.88000n   -9.0963   -16.9290m   -5.7640m   -4.8740m 
   11.89000n   -9.1251   -16.8244m   -5.7366m   -4.8580m 
   11.90000n   -9.1538   -16.7197m   -5.7092m   -4.8420m 
   11.91000n   -9.1825   -16.6151m   -5.6819m   -4.8260m 
   11.92000n   -9.2113   -16.5104m   -5.6545m   -4.8099m 
   11.93000n   -9.2400   -16.4058m   -5.6271m   -4.7939m 
   11.94000n   -9.2687   -16.3011m   -5.5998m   -4.7779m 
   11.95000n   -9.2975   -16.1965m   -5.5724m   -4.7618m 
   11.96000n   -9.3262   -16.0918m   -5.5451m   -4.7458m 
   11.97000n   -9.3549   -15.9872m   -5.5177m   -4.7298m 
   11.98000n   -9.3837   -15.8825m   -5.4903m   -4.7138m 
   11.99000n   -9.4124   -15.7779m   -5.4630m   -4.6977m 
   12.00000n   -9.4411   -15.6732m   -5.4356m   -4.6817m 
   12.01000n   -9.4563   -15.3509m   -5.2763m   -4.4918m 
   12.02000n   -9.4715   -15.0286m   -5.1170m   -4.3019m 
   12.03000n   -9.4867   -14.7063m   -4.9577m   -4.1119m 
   12.04000n   -9.5019   -14.3840m   -4.7984m   -3.9220m 
   12.05000n   -9.5171   -14.0617m   -4.6391m   -3.7321m 
   12.06000n   -9.5322   -13.7394m   -4.4798m   -3.5422m 
   12.07000n   -9.5474   -13.4171m   -4.3206m   -3.3522m 
   12.08000n   -9.5626   -13.0947m   -4.1613m   -3.1623m 
   12.09000n   -9.5778   -12.7724m   -4.0020m   -2.9724m 
   12.10000n   -9.5930   -12.4501m   -3.8427m   -2.7825m 
   12.11000n   -9.6082   -12.1278m   -3.6834m   -2.5925m 
   12.12000n   -9.6234   -11.8055m   -3.5241m   -2.4026m 
   12.13000n   -9.6385   -11.4832m   -3.3648m   -2.2127m 
   12.14000n   -9.6537   -11.1609m   -3.2055m   -2.0228m 
   12.15000n   -9.6689   -10.8386m   -3.0462m   -1.8328m 
   12.16000n   -9.6841   -10.5163m   -2.8869m   -1.6429m 
   12.17000n   -9.6993   -10.1940m   -2.7276m   -1.4530m 
   12.18000n   -9.7145    -9.8717m   -2.5683m   -1.2631m 
   12.19000n   -9.7297    -9.5494m   -2.4090m   -1.0731m 
   12.20000n   -9.7448    -9.2270m   -2.2497m -883.2160u 
   12.21000n   -9.7600    -8.9047m   -2.0905m -693.2911u 
   12.22000n   -9.7752    -8.5824m   -1.9312m -503.3663u 
   12.23000n   -9.7904    -8.2601m   -1.7719m -313.4415u 
   12.24000n   -9.8056    -7.9378m   -1.6126m -123.5167u 
   12.25000n   -9.8208    -7.6155m   -1.4533m   66.4082u 
   12.26000n   -9.8360    -7.2932m   -1.2940m  256.3330u 
[...]
   26.92000n    2.4951m    2.7078m    7.6993m    9.2481  
   26.93000n    2.4816m    2.6937m    7.6569m    9.2767  
   26.94000n    2.4680m    2.6795m    7.6146m    9.3053  
   26.95000n    2.4544m    2.6654m    7.5722m    9.3339  
   26.96000n    2.4408m    2.6512m    7.5298m    9.3625  
   26.97000n    2.4272m    2.6371m    7.4875m    9.3911  
   26.98000n    2.4137m    2.6230m    7.4451m    9.4197  
   26.99000n    2.4001m    2.6088m    7.4027m    9.4483  
   27.00000n    2.3865m    2.5947m    7.3603m    9.4769  
   27.01000n    2.3185m    2.5183m    7.1607m    9.4906  
   27.02000n    2.2505m    2.4420m    6.9610m    9.5044  
   27.03000n    2.1826m    2.3656m    6.7613m    9.5181  
   27.04000n    2.1146m    2.2892m    6.5617m    9.5318  
   27.05000n    2.0466m    2.2129m    6.3620m    9.5455  
   27.06000n    1.9786m    2.1365m    6.1623m    9.5593  
   27.07000n    1.9107m    2.0601m    5.9627m    9.5730  
   27.08000n    1.8427m    1.9838m    5.7630m    9.5867  
   27.09000n    1.7747m    1.9074m    5.5633m    9.6005  
   27.10000n    1.7067m    1.8311m    5.3637m    9.6142  
   27.11000n    1.6388m    1.7547m    5.1640m    9.6279  
   27.12000n    1.5708m    1.6783m    4.9643m    9.6417  
   27.13000n    1.5028m    1.6020m    4.7647m    9.6554  
   27.14000n    1.4348m    1.5256m    4.5650m    9.6691  
   27.15000n    1.3669m    1.4493m    4.3653m    9.6828  
   27.16000n    1.2989m    1.3729m    4.1657m    9.6966  
   27.17000n    1.2309m    1.2965m    3.9660m    9.7103  
   27.18000n    1.1629m    1.2202m    3.7663m    9.7240  
   27.19000n    1.0950m    1.1438m    3.5666m    9.7378  
   27.20000n    1.0270m    1.0674m    3.3670m    9.7515  
   27.21000n  959.0038u  991.0843u    3.1673m    9.7652  
   27.22000n  891.0278u  914.7227u    2.9676m    9.7790  
   27.23000n  823.0518u  838.3610u    2.7680m    9.7927  
   27.24000n  755.0758u  761.9994u    2.5683m    9.8064  
   27.25000n  687.0998u  685.6378u    2.3686m    9.8202  
   27.26000n  619.1238u  609.2762u    2.1690m    9.8339  
   27.27000n  551.1478u  532.9145u    1.9693m    9.8476  
   27.28000n  483.1717u  456.5529u    1.7696m    9.8613  
   27.29000n  415.1957u  380.1913u    1.5700m    9.8751  
   27.30000n  347.2197u  303.8297u    1.3703m    9.8888  
   27.31000n  279.2437u  227.4680u    1.1706m    9.9025  
   27.32000n  211.2677u  151.1064u  970.9674u    9.9163  
   27.33000n  143.2917u   74.7448u  771.2995u    9.9300  
   27.34000n   75.3157u   -1.6168u  571.6316u    9.9437  
   27.35000n   36.7222u  -37.4401u  466.6995u    9.9531  
   27.36000n   41.8414u  -12.9541u  502.7073u    9.9561  
   27.37000n   46.9607u   11.5320u  538.7150u    9.9590  
   27.38000n   52.0800u   36.0181u  574.7227u    9.9620  
   27.39000n   57.1992u   60.5042u  610.7305u    9.9650  
   27.40000n   62.3185u   84.9903u  646.7382u    9.9679  
   27.41000n   67.4378u  109.4764u  682.7459u    9.9709  
   27.42000n   72.5570u  133.9625u  718.7537u    9.9738  
   27.43000n   77.6763u  158.4486u  754.7614u    9.9768  
   27.44000n   82.7955u  182.9347u  790.7691u    9.9798  
   27.45000n   87.9148u  207.4208u  826.7769u    9.9827  
   27.46000n   93.0341u  231.9069u  862.7846u    9.9857  
   27.47000n   98.1533u  256.3930u  898.7923u    9.9886  
   27.48000n  103.2726u  280.8791u  934.8001u    9.9916  
   27.49000n  108.3919u  305.3652u  970.8078u    9.9946  
   27.50000n  113.5111u  329.8513u    1.0068m    9.9975  
   27.51000n   96.0205u  302.1475u  926.7101u    9.9930  
   27.52000n   78.5298u  274.4437u  846.6046u    9.9884  
   27.53000n   61.0391u  246.7399u  766.4992u    9.9838  
   27.54000n   43.5484u  219.0361u  686.3937u    9.9792  
   27.55000n   26.0577u  191.3323u  606.2883u    9.9747  
   27.56000n    8.5671u  163.6286u  526.1828u    9.9701  
   27.57000n   -8.9236u  135.9248u  446.0773u    9.9655  
   27.58000n  -26.4143u  108.2210u  365.9719u    9.9610  
   27.59000n  -43.9050u   80.5172u  285.8664u    9.9564  
   27.60000n  -61.3956u   52.8134u  205.7610u    9.9518  
   27.61000n  -78.8863u   25.1096u  125.6555u    9.9473  
   27.62000n  -96.3770u   -2.5941u   45.5500u    9.9427  
   27.63000n -113.8677u  -30.2979u  -34.5554u    9.9381  
   27.64000n -131.3584u  -58.0017u -114.6609u    9.9336  
   27.65000n -148.8490u  -85.7055u -194.7663u    9.9290  
   27.66000n -166.3397u -113.4093u -274.8718u    9.9244  
   27.67000n -183.8304u -141.1130u -354.9772u    9.9198  
   27.68000n -201.3211u -168.8168u -435.0827u    9.9153  
   27.69000n -218.8118u -196.5206u -515.1882u    9.9107  
   27.70000n -236.3024u -224.2244u -595.2936u    9.9061  
   27.71000n -253.7931u -251.9282u -675.3991u    9.9016  
   27.72000n -271.2838u -279.6320u -755.5045u    9.8970  
   27.73000n -288.7745u -307.3357u -835.6100u    9.8924  
   27.74000n -306.2652u -335.0395u -915.7155u    9.8879  
   27.75000n -335.3711u -372.6757u   -1.0186m    9.8787  
   27.76000n -385.4120u -428.2137u   -1.1627m    9.8615  
   27.77000n -435.4530u -483.7517u   -1.3068m    9.8442  
   27.78000n -485.4940u -539.2897u   -1.4508m    9.8269  
   27.79000n -535.5350u -594.8277u   -1.5949m    9.8096  
   27.80000n -585.5760u -650.3657u   -1.7389m    9.7923  
   27.81000n -635.6169u -705.9037u   -1.8830m    9.7750  
   27.82000n -685.6579u -761.4417u   -2.0270m    9.7577  
   27.83000n -735.6989u -816.9798u   -2.1711m    9.7404  
   27.84000n -785.7399u -872.5178u   -2.3151m    9.7231  
   27.85000n -835.7809u -928.0558u   -2.4592m    9.7058  
   27.86000n -885.8218u -983.5938u   -2.6033m    9.6885  
   27.87000n -935.8628u   -1.0391m   -2.7473m    9.6712  
   27.88000n -985.9038u   -1.0947m   -2.8914m    9.6539  
   27.89000n   -1.0359m   -1.1502m   -3.0354m    9.6366  
   27.90000n   -1.0860m   -1.2057m   -3.1795m    9.6193  
   27.91000n   -1.1360m   -1.2613m   -3.3235m    9.6020  
   27.92000n   -1.1861m   -1.3168m   -3.4676m    9.5847  
   27.93000n   -1.2361m   -1.3724m   -3.6116m    9.5674  
   27.94000n   -1.2861m   -1.4279m   -3.7557m    9.5501  
   27.95000n   -1.3362m   -1.4834m   -3.8998m    9.5328  
   27.96000n   -1.3862m   -1.5390m   -4.0438m    9.5156  
   27.97000n   -1.4363m   -1.5945m   -4.1879m    9.4983  
   27.98000n   -1.4863m   -1.6500m   -4.3319m    9.4810  
   27.99000n   -1.5364m   -1.7056m   -4.4760m    9.4637  
   28.00000n   -1.5864m   -1.7611m   -4.6200m    9.4464  
   28.01000n   -1.6364m   -1.8167m   -4.7641m    9.4291  
   28.02000n   -1.6865m   -1.8722m   -4.9081m    9.4118  
   28.03000n   -1.7365m   -1.9277m   -5.0522m    9.3945  
   28.04000n   -1.7866m   -1.9833m   -5.1963m    9.3772  
   28.05000n   -1.8366m   -2.0388m   -5.3403m    9.3599  
   28.06000n   -1.8866m   -2.0944m   -5.4844m    9.3426  
   28.07000n   -1.9367m   -2.1499m   -5.6284m    9.3253  
   28.08000n   -1.9867m   -2.2054m   -5.7725m    9.3080  
   28.09000n   -2.0368m   -2.2610m   -5.9165m    9.2907  
   28.10000n   -2.0868m   -2.3165m   -6.0606m    9.2734  
   28.11000n   -2.1368m   -2.3720m   -6.2046m    9.2561  
   28.12000n   -2.1869m   -2.4276m   -6.3487m    9.2388  
   28.13000n   -2.2369m   -2.4831m   -6.4928m    9.2215  
   28.14000n   -2.2870m   -2.5387m   -6.6368m    9.2042  
   28.15000n   -2.3370m   -2.5942m   -6.7809m    9.1869  
   28.16000n   -2.3871m   -2.6497m   -6.9249m    9.1696  
   28.17000n   -2.4371m   -2.7053m   -7.0690m    9.1524  
   28.18000n   -2.4871m   -2.7608m   -7.2130m    9.1351  
   28.19000n   -2.4992m   -2.7688m   -7.2535m    9.1039  
   28.20000n   -2.5107m   -2.7760m   -7.2924m    9.0724  
   28.21000n   -2.5222m   -2.7833m   -7.3314m    9.0410  
   28.22000n   -2.5337m   -2.7905m   -7.3703m    9.0096  
   28.23000n   -2.5452m   -2.7978m   -7.4093m    8.9782  
   28.24000n   -2.5567m   -2.8050m   -7.4482m    8.9468  
   28.25000n   -2.5682m   -2.8123m   -7.4872m    8.9154  
   28.26000n   -2.5797m   -2.8195m   -7.5261m    8.8840  
   28.27000n   -2.5912m   -2.8268m   -7.5651m    8.8526  
   28.28000n   -2.6027m   -2.8340m   -7.6040m    8.8212  
   28.29000n   -2.6143m   -2.8413m   -7.6429m    8.7898  
   28.30000n   -2.6258m   -2.8485m   -7.6819m    8.7584  
   28.31000n   -2.6373m   -2.8558m   -7.7208m    8.7269  
   28.32000n   -2.6488m   -2.8631m   -7.7598m    8.6955  
   28.33000n   -2.6603m   -2.8703m   -7.7987m    8.6641  
   28.34000n   -2.6718m   -2.8776m   -7.8377m    8.6327  
   28.35000n   -2.6833m   -2.8848m   -7.8766m    8.6013  
   28.36000n   -2.6948m   -2.8921m   -7.9156m    8.5699  
   28.37000n   -2.7063m   -2.8993m   -7.9545m    8.5385  
   28.38000n   -2.7178m   -2.9066m   -7.9935m    8.5071  
   28.39000n   -2.7293m   -2.9138m   -8.0324m    8.4757  
   28.40000n   -2.7408m   -2.9211m   -8.0714m    8.4443  
   28.41000n   -2.7523m   -2.9283m   -8.1103m    8.4129  
   28.42000n   -2.7638m   -2.9356m   -8.1492m    8.3814  
   28.43000n   -2.7753m   -2.9428m   -8.1882m    8.3500  
   28.44000n   -2.7868m   -2.9501m   -8.2271m    8.3186  
   28.45000n   -2.7984m   -2.9574m   -8.2661m    8.2872  
   28.46000n   -2.8099m   -2.9646m   -8.3050m    8.2558  
   28.47000n   -2.8214m   -2.9719m   -8.3440m    8.2244  
   28.48000n   -2.8329m   -2.9791m   -8.3829m    8.1930  
   28.49000n   -2.8444m   -2.9864m   -8.4219m    8.1616  
   28.50000n   -2.8559m   -2.9936m   -8.4608m    8.1302  
   28.51000n   -2.8717m   -3.0132m   -8.5125m    8.0860  
   28.52000n   -2.8875m   -3.0328m   -8.5641m    8.0418  
   28.53000n   -2.9033m   -3.0524m   -8.6158m    7.9976  
   28.54000n   -2.9192m   -3.0719m   -8.6675m    7.9535  
   28.55000n   -2.9350m   -3.0915m   -8.7191m    7.9093  
   28.56000n   -2.9508m   -3.1111m   -8.7708m    7.8651  
   28.57000n   -2.9666m   -3.1307m   -8.8224m    7.8209  
   28.58000n   -2.9824m   -3.1503m   -8.8741m    7.7767  
   28.59000n   -2.9982m   -3.1698m   -8.9258m    7.7326  
   28.60000n   -3.0141m   -3.1894m   -8.9774m    7.6884  
   28.61000n   -3.0299m   -3.2090m   -9.0291m    7.6442  
   28.62000n   -3.0457m   -3.2286m   -9.0807m    7.6000  
   28.63000n   -3.0615m   -3.2482m   -9.1324m    7.5559  
   28.64000n   -3.0773m   -3.2678m   -9.1841m    7.5117  
   28.65000n   -3.0931m   -3.2873m   -9.2357m    7.4675  
   28.66000n   -3.1090m   -3.3069m   -9.2874m    7.4233  
   28.67000n   -3.1248m   -3.3265m   -9.3391m    7.3791  
   28.68000n   -3.1406m   -3.3461m   -9.3907m    7.3350  
   28.69000n   -3.1564m   -3.3657m   -9.4424m    7.2908  
   28.70000n   -3.1722m   -3.3852m   -9.4940m    7.2466  
   28.71000n   -3.1881m   -3.4048m   -9.5457m    7.2024  
   28.72000n   -3.2039m   -3.4244m   -9.5974m    7.1583  
   28.73000n   -3.2197m   -3.4440m   -9.6490m    7.1141  
   28.74000n   -3.2355m   -3.4636m   -9.7007m    7.0699  
   28.75000n   -3.2513m   -3.4831m   -9.7523m    7.0257  
   28.76000n   -3.2671m   -3.5027m   -9.8040m    6.9815  
   28.77000n   -3.2830m   -3.5223m   -9.8557m    6.9374  
   28.78000n   -3.2988m   -3.5419m   -9.9073m    6.8932  
   28.79000n   -3.3146m   -3.5615m   -9.9590m    6.8490  
   28.80000n   -3.3304m   -3.5810m  -10.0106m    6.8048  
   28.81000n   -3.3462m   -3.6006m  -10.0623m    6.7607  
   28.82000n   -3.3620m   -3.6202m  -10.1140m    6.7165  
   28.83000n   -3.3779m   -3.6398m  -10.1656m    6.6723  
   28.84000n   -3.3937m   -3.6594m  -10.2173m    6.6281  
   28.85000n   -3.4095m   -3.6789m  -10.2690m    6.5839  
   28.86000n   -3.4253m   -3.6985m  -10.3206m    6.5398  
   28.87000n   -3.4411m   -3.7181m  -10.3723m    6.4956  
   28.88000n   -3.4570m   -3.7377m  -10.4239m    6.4514  
   28.89000n   -3.4728m   -3.7573m  -10.4756m    6.4072  
   28.90000n   -3.4886m   -3.7769m  -10.5273m    6.3630  
   28.91000n   -3.5044m   -3.7964m  -10.5789m    6.3189  
   28.92000n   -3.5202m   -3.8160m  -10.6306m    6.2747  
   28.93000n   -3.5360m   -3.8356m  -10.6822m    6.2305  
   28.94000n   -3.5519m   -3.8552m  -10.7339m    6.1863  
   28.95000n   -3.5677m   -3.8748m  -10.7856m    6.1422  
   28.96000n   -3.5835m   -3.8943m  -10.8372m    6.0980  
   28.97000n   -3.5993m   -3.9139m  -10.8889m    6.0538  
   28.98000n   -3.6151m   -3.9335m  -10.9405m    6.0096  
   28.99000n   -3.6309m   -3.9531m  -10.9922m    5.9654  
   29.00000n   -3.6468m   -3.9727m  -11.0439m    5.9213  
   29.01000n   -3.6626m   -3.9922m  -11.0955m    5.8771  
   29.02000n   -3.7040m   -4.0386m  -11.2161m    5.8249  
   29.03000n   -3.7509m   -4.0908m  -11.3515m    5.7709  
   29.04000n   -3.7979m   -4.1429m  -11.4869m    5.7169  
   29.05000n   -3.8448m   -4.1950m  -11.6223m    5.6629  
   29.06000n   -3.8917m   -4.2472m  -11.7577m    5.6089  
   29.07000n   -3.9386m   -4.2993m  -11.8931m    5.5550  
   29.08000n   -3.9856m   -4.3515m  -12.0286m    5.5010  
   29.09000n   -4.0325m   -4.4036m  -12.1640m    5.4470  
   29.10000n   -4.0794m   -4.4557m  -12.2994m    5.3930  
   29.11000n   -4.1264m   -4.5079m  -12.4348m    5.3391  
   29.12000n   -4.1733m   -4.5600m  -12.5702m    5.2851  
   29.13000n   -4.2202m   -4.6122m  -12.7056m    5.2311  
   29.14000n   -4.2672m   -4.6643m  -12.8410m    5.1771  
   29.15000n   -4.3141m   -4.7164m  -12.9764m    5.1232  
   29.16000n   -4.3610m   -4.7686m  -13.1118m    5.0692  
   29.17000n   -4.4080m   -4.8207m  -13.2472m    5.0152  
   29.18000n   -4.4549m   -4.8729m  -13.3827m    4.9612  
   29.19000n   -4.5018m   -4.9250m  -13.5181m    4.9073  
   29.20000n   -4.5487m   -4.9771m  -13.6535m    4.8533  
   29.21000n   -4.5957m   -5.0293m  -13.7889m    4.7993  
   29.22000n   -4.6426m   -5.0814m  -13.9243m    4.7453  
   29.23000n   -4.6895m   -5.1336m  -14.0597m    4.6914  
   29.24000n   -4.7365m   -5.1857m  -14.1951m    4.6374  
   29.25000n   -4.7834m   -5.2378m  -14.3305m    4.5834  
   29.26000n   -4.8303m   -5.2900m  -14.4659m    4.5294  
   29.27000n   -4.8773m   -5.3421m  -14.6013m    4.4755  
   29.28000n   -4.9242m   -5.3943m  -14.7368m    4.4215  
   29.29000n   -4.9711m   -5.4464m  -14.8722m    4.3675  
   29.30000n   -5.0181m   -5.4985m  -15.0076m    4.3135  
   29.31000n   -5.0650m   -5.5507m  -15.1430m    4.2596  
   29.32000n   -5.1119m   -5.6028m  -15.2784m    4.2056  
   29.33000n   -5.1588m   -5.6550m  -15.4138m    4.1516  
   29.34000n   -5.2058m   -5.7071m  -15.5492m    4.0976  
   29.35000n   -5.2527m   -5.7592m  -15.6846m    4.0437  
   29.36000n   -5.2643m   -5.7707m  -15.7215m    3.9847  
   29.37000n   -5.2603m   -5.7643m  -15.7149m    3.9235  
   29.38000n   -5.2563m   -5.7578m  -15.7083m    3.8624  
   29.39000n   -5.2523m   -5.7514m  -15.7016m    3.8012  
   29.40000n   -5.2483m   -5.7449m  -15.6950m    3.7401  
   29.41000n   -5.2443m   -5.7384m  -15.6884m    3.6789  
   29.42000n   -5.2403m   -5.7320m  -15.6818m    3.6178  
   29.43000n   -5.2363m   -5.7255m  -15.6751m    3.5566  
   29.44000n   -5.2323m   -5.7191m  -15.6685m    3.4954  
   29.45000n   -5.2284m   -5.7126m  -15.6619m    3.4343  
   29.46000n   -5.2244m   -5.7062m  -15.6553m    3.3731  
   29.47000n   -5.2204m   -5.6997m  -15.6486m    3.3120  
   29.48000n   -5.2164m   -5.6933m  -15.6420m    3.2508  
   29.49000n   -5.2124m   -5.6868m  -15.6354m    3.1897  
   29.50000n   -5.2084m   -5.6803m  -15.6288m    3.1285  
   29.51000n   -5.2044m   -5.6739m  -15.6221m    3.0674  
   29.52000n   -5.2004m   -5.6674m  -15.6155m    3.0062  
   29.53000n   -5.1964m   -5.6610m  -15.6089m    2.9450  
   29.54000n   -5.1924m   -5.6545m  -15.6023m    2.8839  
   29.55000n   -5.1884m   -5.6481m  -15.5956m    2.8227  
   29.56000n   -5.1844m   -5.6416m  -15.5890m    2.7616  
   29.57000n   -5.1804m   -5.6352m  -15.5824m    2.7004  
   29.58000n   -5.1764m   -5.6287m  -15.5758m    2.6393  
   29.59000n   -5.1724m   -5.6222m  -15.5691m    2.5781  
   29.60000n   -5.1684m   -5.6158m  -15.5625m    2.5169  
   29.61000n   -5.1644m   -5.6093m  -15.5559m    2.4558  
   29.62000n   -5.1604m   -5.6029m  -15.5492m    2.3946  
   29.63000n   -5.1564m   -5.5964m  -15.5426m    2.3335  
   29.64000n   -5.1524m   -5.5900m  -15.5360m    2.2723  
   29.65000n   -5.1484m   -5.5835m  -15.5294m    2.2112  
   29.66000n   -5.1444m   -5.5770m  -15.5227m    2.1500  
   29.67000n   -5.1404m   -5.5706m  -15.5161m    2.0888  
   29.68000n   -5.1365m   -5.5641m  -15.5095m    2.0277  
   29.69000n   -5.1325m   -5.5577m  -15.5029m    1.9665  
   29.70000n   -5.1285m   -5.5512m  -15.4962m    1.9054  
   29.71000n   -5.1245m   -5.5448m  -15.4896m    1.8442  
   29.72000n   -5.1205m   -5.5383m  -15.4830m    1.7831  
   29.73000n   -5.1165m   -5.5319m  -15.4764m    1.7219  
   29.74000n   -5.1125m   -5.5254m  -15.4697m    1.6608  
   29.75000n   -5.1085m   -5.5189m  -15.4631m    1.5996  
   29.76000n   -5.1045m   -5.5125m  -15.4565m    1.5384  
   29.77000n   -5.1005m   -5.5060m  -15.4499m    1.4773  
   29.78000n   -5.0965m   -5.4996m  -15.4432m    1.4161  
   29.79000n   -5.0925m   -5.4931m  -15.4366m    1.3550  
   29.80000n   -5.0885m   -5.4867m  -15.4300m    1.2938  
   29.81000n   -5.0845m   -5.4802m  -15.4234m    1.2327  
   29.82000n   -5.0805m   -5.4738m  -15.4167m    1.1715  
   29.83000n   -5.0765m   -5.4673m  -15.4101m    1.1103  
   29.84000n   -5.0725m   -5.4608m  -15.4035m    1.0492  
   29.85000n   -5.0685m   -5.4544m  -15.3968m  988.0363m 
   29.86000n   -5.0645m   -5.4479m  -15.3902m  926.8800m 
   29.87000n   -5.0605m   -5.4415m  -15.3836m  865.7237m 
   29.88000n   -5.0565m   -5.4350m  -15.3770m  804.5674m 
   29.89000n   -5.0525m   -5.4286m  -15.3703m  743.4111m 
   29.90000n   -5.0485m   -5.4221m  -15.3637m  682.2548m 
   29.91000n   -5.0446m   -5.4156m  -15.3571m  621.0986m 
   29.92000n   -5.0406m   -5.4092m  -15.3505m  559.9423m 
   29.93000n   -5.0366m   -5.4027m  -15.3438m  498.7860m 
   29.94000n   -5.0326m   -5.3963m  -15.3372m  437.6297m 
   29.95000n   -5.0286m   -5.3898m  -15.3306m  376.4734m 
   29.96000n   -5.0246m   -5.3834m  -15.3240m  315.3171m 
   29.97000n   -5.0206m   -5.3769m  -15.3173m  254.1608m 
   29.98000n   -5.0166m   -5.3705m  -15.3107m  193.0045m 
   29.99000n   -5.0126m   -5.3640m  -15.3041m  131.8482m 
   30.00000n   -5.0086m   -5.3575m  -15.2975m   70.6919m 
y

          ***** job concluded
 ******  
 *a bus interconnect circuit with 10 bus line 8 segment.

 ****** job statistics summary tnom=  25.000 temp=  25.000 ******

  ******  HSPICE Threads Information  ******

  Command Line Threads Count :     1
  Available CPU Count        :     8
  Actual Threads Count       :     1


  ******  Circuit Statistics  ******
  # nodes       =     171 # elements   =     945
  # resistors   =      91 # capacitors =     413 # inductors   =      80
  # mutual_inds =     360 # vccs       =       0 # vcvs        =       0
  # cccs        =       0 # ccvs       =       0 # volt_srcs   =       0
  # curr_srcs   =       1 # diodes     =       0 # bjts        =       0
  # jfets       =       0 # mosfets    =       0 # U elements  =       0
  # T elements  =       0 # W elements =       0 # B elements  =       0
  # S elements  =       0 # P elements =       0 # va device   =       0
  # vector_srcs =       0 # N elements =       0


  ******  Runtime Statistics (seconds)  ******

  analysis           time    # points   tot. iter  conv.iter
  op point           0.10           1           4
  transient          0.01        3001         146          73 rev=         0
  readin             0.25
  errchk             0.01
  setup              0.00
  output             0.00


           peak memory used         71.98 megabytes
           total cpu time            1.35 seconds
           total elapsed time        2.47 seconds
           job started at     18:06:09 12/06/2022
           job ended   at     18:06:11 12/06/2022
           job total runtime         2.47 seconds


  lic: Release hspice token(s) 
 lic: total license checkout elapse time:        1.07(s)
