 ****** HSPICE -- P-2019.06-SP1-1 win64 (Sep 27 2019) ******                    
  Copyright (c) 1986 - 2022 by Synopsys, Inc. All Rights Reserved.              
  This software and the associated documentation are proprietary
  to Synopsys, Inc. This software may only be used in accordance
  with the terms and conditions of a written license agreement with
  Synopsys, Inc. All other use, reproduction, or distribution of
  this software is strictly prohibited.
  Input File: bus8bit8seg_p.sp                                                  
  Command line options: C:\synopsys\Hspice_P-2019.06-SP1-1\WIN64\hspice.com -i bus8bit8seg_p.sp -o F:\Benchmark\bus8bit8seg_p.lis
  Start time: Tue Dec  6 18:09:47 2022
  lic:  
  lic: FLEXlm: SDK_12.3 
  lic: USER:   44919                HOSTNAME: CZJ 
  lic: HOSTID: "000000000000"       PID:      7596 
  lic: Using FLEXlm license file: 
  lic: 27000@CZJ 
  lic: Checkout 1 hspice 
  lic: License/Maintenance for hspice will expire on 30-dec-2030/2030.12 
  lic: 1(in_use)/99(total) FLOATING license(s) on SERVER 27000@CZJ 
  lic:   
1****** HSPICE -- P-2019.06-SP1-1 win64 (Sep 27 2019) ******                    
 ******  
 *a bus interconnect circuit with 10 bus line 8 segment.

 ****** circuit name directory
 circuit number to circuit name directory
   number circuitname                     definition         multiplier
        0 main circuit
        1 x1.                             intercon           1.00 
  **info** (bus8bit8seg_p.sp:13) DC voltage reset to initial transient source value in source 0:iin1. new dc=0.0000D+00
  **warning** For .option genk=1, 0 implicit mutual inductors are generated!

             
 Summary of Linear Res Distribution Info
 -----------------------------------------------------
 |Range                        |Total     |Percent(%)|
 |-----------------------------+----------+----------|
 |1.000000e-01  ~  1.000000e+00|3         |3.2967    |
 |1.000000e+00  ~  1.000000e+03|88        |96.7033   |
 -----------------------------------------------------
              
             
 Summary of Linear Cap Distribution Info
 -----------------------------------------------------
 |Range                        |Total     |Percent(%)|
 |-----------------------------+----------+----------|
 |1.000000e-15  ~  1.000000e-14|142       |34.3826   |
 |1.000000e-14  ~  1.000000e-13|263       |63.6804   |
 |1.000000e-13  ~  1.000000e-12|8         |1.9370    |
 -----------------------------------------------------
              
             
 Summary of Detailed RC Type Statistics
 -------------------------
 |Element Type|Number    |
 |------------+----------|
 |Constant Res|91        |
 |            |          |
 |Constant Cap|413       |
 -------------------------
              
  
      
 *****************************************************************
 ******  option summary
 ******
 runlvl  = 3         bypass  = 2.0000    

 **info** rebuilding matrix with pivot option

 **info** dc convergence successful at Newton-Raphson method 
 ******  
 *a bus interconnect circuit with 10 bus line 8 segment.

 ****** operating point information tnom=  25.000 temp=  25.000 ******
 ****** operating point status is voltage   simulation time is     0.     
    node    =voltage      node    =voltage      node    =voltage

 +0:tdn1a1  =   0.      0:tdn1a9  =   0.      0:tdn2a1  =   0.     
 +0:tdn2a9  =   0.      0:tdn3a1  =   0.      0:tdn3a9  =   0.     
 +0:tdn4a1  =   0.      0:tdn4a9  =   0.      0:tdn5a1  =   0.     
 +0:tdn5a9  =   0.      0:tdn6a1  =   0.      0:tdn6a9  =   0.     
 +0:tdn7a1  =   0.      0:tdn7a9  =   0.      0:tdn8a1  =   0.     
 +0:tdn8a9  =   0.      0:tdnga1  =   0.      0:tdnga9  =   0.     
 +0:tdnva1  =   0.      0:tdnva9  =   0.      1:tdn1a10 =   0.     
 +1:tdn1a11 =   0.      1:tdn1a12 =   0.      1:tdn1a13 =   0.     
 +1:tdn1a14 =   0.      1:tdn1a15 =   0.      1:tdn1a16 =   0.     
 +1:tdn1a2  =   0.      1:tdn1a3  =   0.      1:tdn1a4  =   0.     
 +1:tdn1a5  =   0.      1:tdn1a6  =   0.      1:tdn1a7  =   0.     
 +1:tdn1a8  =   0.      1:tdn1a9  =   0.      1:tdn2a10 =   0.     
 +1:tdn2a11 =   0.      1:tdn2a12 =   0.      1:tdn2a13 =   0.     
 +1:tdn2a14 =   0.      1:tdn2a15 =   0.      1:tdn2a16 =   0.     
 +1:tdn2a2  =   0.      1:tdn2a3  =   0.      1:tdn2a4  =   0.     
 +1:tdn2a5  =   0.      1:tdn2a6  =   0.      1:tdn2a7  =   0.     
 +1:tdn2a8  =   0.      1:tdn2a9  =   0.      1:tdn3a10 =   0.     
 +1:tdn3a11 =   0.      1:tdn3a12 =   0.      1:tdn3a13 =   0.     
 +1:tdn3a14 =   0.      1:tdn3a15 =   0.      1:tdn3a16 =   0.     
 +1:tdn3a2  =   0.      1:tdn3a3  =   0.      1:tdn3a4  =   0.     
 +1:tdn3a5  =   0.      1:tdn3a6  =   0.      1:tdn3a7  =   0.     
 +1:tdn3a8  =   0.      1:tdn3a9  =   0.      1:tdn4a10 =   0.     
 +1:tdn4a11 =   0.      1:tdn4a12 =   0.      1:tdn4a13 =   0.     
 +1:tdn4a14 =   0.      1:tdn4a15 =   0.      1:tdn4a16 =   0.     
 +1:tdn4a2  =   0.      1:tdn4a3  =   0.      1:tdn4a4  =   0.     
 +1:tdn4a5  =   0.      1:tdn4a6  =   0.      1:tdn4a7  =   0.     
 +1:tdn4a8  =   0.      1:tdn4a9  =   0.      1:tdn5a10 =   0.     
 +1:tdn5a11 =   0.      1:tdn5a12 =   0.      1:tdn5a13 =   0.     
 +1:tdn5a14 =   0.      1:tdn5a15 =   0.      1:tdn5a16 =   0.     
 +1:tdn5a2  =   0.      1:tdn5a3  =   0.      1:tdn5a4  =   0.     
 +1:tdn5a5  =   0.      1:tdn5a6  =   0.      1:tdn5a7  =   0.     
 +1:tdn5a8  =   0.      1:tdn5a9  =   0.      1:tdn6a10 =   0.     
 +1:tdn6a11 =   0.      1:tdn6a12 =   0.      1:tdn6a13 =   0.     
 +1:tdn6a14 =   0.      1:tdn6a15 =   0.      1:tdn6a16 =   0.     
 +1:tdn6a2  =   0.      1:tdn6a3  =   0.      1:tdn6a4  =   0.     
 +1:tdn6a5  =   0.      1:tdn6a6  =   0.      1:tdn6a7  =   0.     
 +1:tdn6a8  =   0.      1:tdn6a9  =   0.      1:tdn7a10 =   0.     
 +1:tdn7a11 =   0.      1:tdn7a12 =   0.      1:tdn7a13 =   0.     
 +1:tdn7a14 =   0.      1:tdn7a15 =   0.      1:tdn7a16 =   0.     
 +1:tdn7a2  =   0.      1:tdn7a3  =   0.      1:tdn7a4  =   0.     
 +1:tdn7a5  =   0.      1:tdn7a6  =   0.      1:tdn7a7  =   0.     
 +1:tdn7a8  =   0.      1:tdn7a9  =   0.      1:tdn8a10 =   0.     
 +1:tdn8a11 =   0.      1:tdn8a12 =   0.      1:tdn8a13 =   0.     
 +1:tdn8a14 =   0.      1:tdn8a15 =   0.      1:tdn8a16 =   0.     
 +1:tdn8a2  =   0.      1:tdn8a3  =   0.      1:tdn8a4  =   0.     
 +1:tdn8a5  =   0.      1:tdn8a6  =   0.      1:tdn8a7  =   0.     
 +1:tdn8a8  =   0.      1:tdn8a9  =   0.      1:tdnga10 =   0.     
 +1:tdnga11 =   0.      1:tdnga12 =   0.      1:tdnga13 =   0.     
 +1:tdnga14 =   0.      1:tdnga15 =   0.      1:tdnga16 =   0.     
 +1:tdnga2  =   0.      1:tdnga3  =   0.      1:tdnga4  =   0.     
 +1:tdnga5  =   0.      1:tdnga6  =   0.      1:tdnga7  =   0.     
 +1:tdnga8  =   0.      1:tdnga9  =   0.      1:tdnva10 =   0.     
 +1:tdnva11 =   0.      1:tdnva12 =   0.      1:tdnva13 =   0.     
 +1:tdnva14 =   0.      1:tdnva15 =   0.      1:tdnva16 =   0.     
 +1:tdnva2  =   0.      1:tdnva3  =   0.      1:tdnva4  =   0.     
 +1:tdnva5  =   0.      1:tdnva6  =   0.      1:tdnva7  =   0.     
 +1:tdnva8  =   0.      1:tdnva9  =   0.     

 ******
 *a bus interconnect circuit with 10 bus line 8 segment.

 ****** transient analysis tnom=  25.000 temp=  25.000 ******
x

 time         voltage    voltage    voltage    voltage   
             tdn1a9     tdn2a9     tdn3a9     tdn4a9     
    0.          0.         0.         0.         0.      
   10.00000p    0.         0.         0.         0.      
   20.00000p    0.         0.         0.         0.      
   30.00000p    0.         0.         0.         0.      
   40.00000p    0.         0.         0.         0.      
   50.00000p    0.         0.         0.         0.      
   60.00000p    0.         0.         0.         0.      
   70.00000p    0.         0.         0.         0.      
   80.00000p    0.         0.         0.         0.      
   90.00000p    0.         0.         0.         0.      
  100.00000p    0.         0.         0.         0.      
  110.00000p    0.         0.         0.         0.      
  120.00000p    0.         0.         0.         0.      
  130.00000p    0.         0.         0.         0.      
  140.00000p    0.         0.         0.         0.      
  150.00000p    0.         0.         0.         0.      
  160.00000p    0.         0.         0.         0.      
  170.00000p    0.         0.         0.         0.      
  180.00000p    0.         0.         0.         0.      
  190.00000p    0.         0.         0.         0.      
  200.00000p    0.         0.         0.         0.      
  210.00000p    0.         0.         0.         0.      
  220.00000p    0.         0.         0.         0.      
  230.00000p    0.         0.         0.         0.      
  240.00000p    0.         0.         0.         0.      
  250.00000p    0.         0.         0.         0.      
  260.00000p    0.         0.         0.         0.      
  270.00000p    0.         0.         0.         0.      
  280.00000p    0.         0.         0.         0.      
  290.00000p    0.         0.         0.         0.      
  300.00000p    0.         0.         0.         0.      
  310.00000p    0.         0.         0.         0.      
  320.00000p    0.         0.         0.         0.      
  330.00000p    0.         0.         0.         0.      
  340.00000p    0.         0.         0.         0.      
  350.00000p    0.         0.         0.         0.      
  360.00000p    0.         0.         0.         0.      
  370.00000p    0.         0.         0.         0.      
  380.00000p    0.         0.         0.         0.      
  390.00000p    0.         0.         0.         0.      
  400.00000p    0.         0.         0.         0.      
  410.00000p    0.         0.         0.         0.      
  420.00000p    0.         0.         0.         0.      
  430.00000p    0.         0.         0.         0.      
  440.00000p    0.         0.         0.         0.      
  450.00000p    0.         0.         0.         0.      
  460.00000p    0.         0.         0.         0.      
  470.00000p    0.         0.         0.         0.      
  480.00000p    0.         0.         0.         0.      
  490.00000p    0.         0.         0.         0.      
  500.00000p    0.         0.         0.         0.      
  510.00000p    0.         0.         0.         0.      
  520.00000p    0.         0.         0.         0.      
  530.00000p    0.         0.         0.         0.      
  540.00000p    0.         0.         0.         0.      
  550.00000p    0.         0.         0.         0.      
  560.00000p    0.         0.         0.         0.      
  570.00000p    0.         0.         0.         0.      
  580.00000p    0.         0.         0.         0.      
  590.00000p    0.         0.         0.         0.      
  600.00000p    0.         0.         0.         0.      
  610.00000p    0.         0.         0.         0.      
  620.00000p    0.         0.         0.         0.      
  630.00000p    0.         0.         0.         0.      
  640.00000p    0.         0.         0.         0.      
  650.00000p    0.         0.         0.         0.      
  660.00000p    0.         0.         0.         0.      
  670.00000p    0.         0.         0.         0.      
  680.00000p    0.         0.         0.         0.      
  690.00000p    0.         0.         0.         0.      
  700.00000p    0.         0.         0.         0.      
  710.00000p    0.         0.         0.         0.      
  720.00000p    0.         0.         0.         0.      
  730.00000p    0.         0.         0.         0.      
  740.00000p    0.         0.         0.         0.      
  750.00000p    0.         0.         0.         0.      
  760.00000p    0.         0.         0.         0.      
  770.00000p    0.         0.         0.         0.      
  780.00000p    0.         0.         0.         0.      
  790.00000p    0.         0.         0.         0.      
  800.00000p    0.         0.         0.         0.      
  810.00000p    0.         0.         0.         0.      
  820.00000p    0.         0.         0.         0.      
  830.00000p    0.         0.         0.         0.      
  840.00000p    0.         0.         0.         0.      
  850.00000p    0.         0.         0.         0.      
  860.00000p    0.         0.         0.         0.      
  870.00000p    0.         0.         0.         0.      
  880.00000p    0.         0.         0.         0.      
  890.00000p    0.         0.         0.         0.      
  900.00000p    0.         0.         0.         0.      
  910.00000p    0.         0.         0.         0.      
  920.00000p    0.         0.         0.         0.      
  930.00000p    0.         0.         0.         0.      
  940.00000p    0.         0.         0.         0.      
  950.00000p    0.         0.         0.         0.      
  960.00000p    0.         0.         0.         0.      
  970.00000p    0.         0.         0.         0.      
  980.00000p    0.         0.         0.         0.      
  990.00000p    0.         0.         0.         0.      
 1000.00000p    0.         0.         0.         0.      
    1.01000n -387.6880m  -15.7954m  -14.4251m  -19.9500m 
    1.02000n -775.3760m  -31.5909m  -28.8503m  -39.9001m 
    1.03000n   -1.1631   -47.3863m  -43.2754m  -59.8501m 
    1.04000n   -1.5508   -63.1817m  -57.7006m  -79.8002m 
    1.05000n   -1.9384   -78.9771m  -72.1257m  -99.7502m 
    1.06000n   -2.3261   -94.7726m  -86.5509m -119.7002m 
    1.07000n   -2.7138  -110.5680m -100.9760m -139.6503m 
    1.08000n   -3.1806  -122.7416m -107.7602m -150.5851m 
    1.09000n   -3.7265  -131.2935m -106.9033m -152.5046m 
    1.10000n   -4.2724  -139.8454m -106.0465m -154.4242m 
    1.11000n   -4.8183  -148.3972m -105.1896m -156.3438m 
    1.12000n   -5.3642  -156.9491m -104.3328m -158.2633m 
    1.13000n   -5.9101  -165.5010m -103.4760m -160.1829m 
    1.14000n   -6.4560  -174.0528m -102.6191m -162.1024m 
    1.15000n   -7.0019  -182.6047m -101.7623m -164.0220m 
    1.16000n   -7.5502  -191.1293m -100.9121m -165.7472m 
    1.17000n   -8.1870  -198.6614m -100.3025m -160.4125m 
    1.18000n   -8.8238  -206.1936m  -99.6928m -155.0777m 
    1.19000n   -9.4605  -213.7257m  -99.0832m -149.7430m 
    1.20000n  -10.0973  -221.2578m  -98.4736m -144.4082m 
    1.21000n  -10.7341  -228.7900m  -97.8640m -139.0734m 
    1.22000n  -11.3709  -236.3221m  -97.2544m -133.7387m 
    1.23000n  -12.0077  -243.8543m  -96.6448m -128.4039m 
    1.24000n  -12.6444  -251.3864m  -96.0351m -123.0692m 
    1.25000n  -13.2812  -258.9186m  -95.4255m -117.7344m 
    1.26000n  -13.9180  -266.4507m  -94.8159m -112.3997m 
    1.27000n  -14.5548  -273.9829m  -94.2063m -107.0649m 
    1.28000n  -15.1915  -281.5150m  -93.5967m -101.7302m 
    1.29000n  -15.8283  -289.0472m  -92.9871m  -96.3954m 
    1.30000n  -16.4651  -296.5793m  -92.3775m  -91.0607m 
    1.31000n  -17.1019  -304.1114m  -91.7678m  -85.7259m 
    1.32000n  -17.7386  -311.6436m  -91.1582m  -80.3912m 
    1.33000n  -18.3754  -319.1757m  -90.5486m  -75.0564m 
    1.34000n  -19.0122  -326.7079m  -89.9390m  -69.7217m 
    1.35000n  -19.6490  -334.2400m  -89.3294m  -64.3869m 
    1.36000n  -20.2858  -341.7722m  -88.7198m  -59.0522m 
    1.37000n  -20.9225  -349.3043m  -88.1101m  -53.7174m 
    1.38000n  -21.5593  -356.8365m  -87.5005m  -48.3827m 
    1.39000n  -22.1961  -364.3686m  -86.8909m  -43.0479m 
    1.40000n  -22.8329  -371.9008m  -86.2813m  -37.7132m 
    1.41000n  -23.4696  -379.4329m  -85.6717m  -32.3784m 
    1.42000n  -24.1064  -386.9650m  -85.0621m  -27.0437m 
    1.43000n  -24.7432  -394.4972m  -84.4524m  -21.7089m 
    1.44000n  -25.2892  -393.0648m  -95.0321m  -32.6910m 
    1.45000n  -25.8265  -390.7732m -106.6843m  -45.2370m 
    1.46000n  -26.3638  -388.4815m -118.3366m  -57.7830m 
    1.47000n  -26.9012  -386.1899m -129.9888m  -70.3290m 
    1.48000n  -27.4385  -383.8983m -141.6410m  -82.8750m 
    1.49000n  -27.9758  -381.6066m -153.2932m  -95.4210m 
    1.50000n  -28.5131  -379.3150m -164.9454m -107.9671m 
    1.51000n  -28.6541  -358.2897m -151.4919m  -96.2133m 
    1.52000n  -28.7952  -337.2644m -138.0384m  -84.4596m 
    1.53000n  -28.9362  -316.2392m -124.5850m  -72.7058m 
    1.54000n  -29.0772  -295.2139m -111.1315m  -60.9521m 
    1.55000n  -29.2182  -274.1886m  -97.6780m  -49.1983m 
    1.56000n  -29.3593  -253.1633m  -84.2246m  -37.4446m 
    1.57000n  -29.5003  -232.1380m  -70.7711m  -25.6909m 
    1.58000n  -29.6413  -211.1128m  -57.3176m  -13.9371m 
    1.59000n  -29.7823  -190.0875m  -43.8642m   -2.1834m 
    1.60000n  -29.9234  -169.0622m  -30.4107m    9.5704m 
    1.61000n  -30.0644  -148.0369m  -16.9572m   21.3241m 
    1.62000n  -30.1493  -135.0383m  -10.1513m   28.2599m 
    1.63000n  -30.2307  -122.5526m   -3.7700m   34.8878m 
    1.64000n  -30.3120  -110.0669m    2.6113m   41.5157m 
    1.65000n  -30.3580   -99.4976m    5.8086m   44.3294m 
    1.66000n  -30.3271   -93.1052m    2.0673m   38.8308m 
    1.67000n  -30.2961   -86.7128m   -1.6741m   33.3321m 
    1.68000n  -30.2651   -80.3203m   -5.4155m   27.8335m 
    1.69000n  -30.2341   -73.9279m   -9.1569m   22.3349m 
    1.70000n  -30.2031   -67.5355m  -12.8983m   16.8362m 
    1.71000n  -30.1721   -61.1430m  -16.6397m   11.3376m 
    1.72000n  -30.1411   -54.7506m  -20.3811m    5.8390m 
    1.73000n  -30.1101   -48.3582m  -24.1225m  340.3137u 
    1.74000n  -30.0791   -41.9657m  -27.8639m   -5.1583m 
    1.75000n  -30.0481   -35.5733m  -31.6053m  -10.6570m 
    1.76000n  -30.0171   -29.1809m  -35.3467m  -16.1556m 
    1.77000n  -30.0055   -25.2043m  -34.7735m  -17.5294m 
    1.78000n  -30.0016   -22.1991m  -32.4653m  -17.2445m 
    1.79000n  -29.9978   -19.1940m  -30.1571m  -16.9595m 
    1.80000n  -29.9939   -16.1889m  -27.8489m  -16.6746m 
    1.81000n  -29.9901   -13.1838m  -25.5406m  -16.3897m 
    1.82000n  -29.9863   -10.1786m  -23.2324m  -16.1047m 
    1.83000n  -29.9824    -7.1735m  -20.9242m  -15.8198m 
    1.84000n  -29.9786    -4.1684m  -18.6160m  -15.5349m 
    1.85000n  -29.9747    -1.1632m  -16.3078m  -15.2500m 
    1.86000n  -29.9709     1.8419m  -13.9996m  -14.9650m 
    1.87000n  -29.9671     4.8470m  -11.6914m  -14.6801m 
    1.88000n  -29.9632     7.8521m   -9.3832m  -14.3952m 
    1.89000n  -29.9594    10.8573m   -7.0750m  -14.1102m 
    1.90000n  -29.9555    13.8624m   -4.7668m  -13.8253m 
    1.91000n  -29.9517    16.8675m   -2.4585m  -13.5404m 
    1.92000n  -29.9478    19.8726m -150.3362u  -13.2554m 
    1.93000n  -29.9440    22.8778m    2.1579m  -12.9705m 
    1.94000n  -29.9402    25.8829m    4.4661m  -12.6856m 
    1.95000n  -29.9363    28.8880m    6.7743m  -12.4006m 
    1.96000n  -29.9325    31.8931m    9.0825m  -12.1157m 
    1.97000n  -29.9286    34.8983m   11.3907m  -11.8308m 
    1.98000n  -29.9248    37.9034m   13.6989m  -11.5459m 
    1.99000n  -29.9209    40.9085m   16.0071m  -11.2609m 
    2.00000n  -29.9171    43.9137m   18.3153m  -10.9760m 
    2.01000n  -29.9146    46.2687m   20.3721m  -10.5217m 
    2.02000n  -29.9284    40.3378m   19.2240m   -7.9092m 
    2.03000n  -29.9423    34.4070m   18.0760m   -5.2967m 
    2.04000n  -29.9562    28.4762m   16.9279m   -2.6842m 
    2.05000n  -29.9701    22.5453m   15.7799m  -71.7459u 
    2.06000n  -29.9840    16.6145m   14.6318m    2.5407m 
    2.07000n  -29.9979    10.6837m   13.4837m    5.1532m 
    2.08000n  -30.0118     4.7529m   12.3357m    7.7657m 
    2.09000n  -30.0257    -1.1780m   11.1876m   10.3782m 
    2.10000n  -30.0395    -7.1088m   10.0396m   12.9907m 
    2.11000n  -30.0534   -13.0396m    8.8915m   15.6032m 
    2.12000n  -30.0673   -18.9705m    7.7434m   18.2157m 
    2.13000n  -30.0812   -24.9013m    6.5954m   20.8282m 
    2.14000n  -30.0951   -30.8321m    5.4473m   23.4407m 
    2.15000n  -30.1090   -36.7629m    4.2992m   26.0532m 
    2.16000n  -30.1229   -42.6938m    3.1512m   28.6657m 
    2.17000n  -30.1367   -48.6246m    2.0031m   31.2782m 
    2.18000n  -30.1467   -53.0078m    1.0340m   33.1042m 
    2.19000n  -30.1406   -50.9778m  806.2614u   31.6712m 
    2.20000n  -30.1345   -48.9477m  578.5393u   30.2381m 
    2.21000n  -30.1284   -46.9176m  350.8171u   28.8050m 
    2.22000n  -30.1223   -44.8876m  123.0950u   27.3720m 
    2.23000n  -30.1162   -42.8575m -104.6272u   25.9389m 
    2.24000n  -30.1101   -40.8275m -332.3493u   24.5058m 
    2.25000n  -30.1040   -38.7974m -560.0715u   23.0728m 
    2.26000n  -30.0979   -36.7674m -787.7936u   21.6397m 
    2.27000n  -30.0918   -34.7373m   -1.0155m   20.2066m 
    2.28000n  -30.0857   -32.7073m   -1.2432m   18.7736m 
    2.29000n  -30.0796   -30.6772m   -1.4710m   17.3405m 
    2.30000n  -30.0735   -28.6472m   -1.6987m   15.9075m 
    2.31000n  -30.0674   -26.6171m   -1.9264m   14.4744m 
    2.32000n  -30.0613   -24.5871m   -2.1541m   13.0413m 
    2.33000n  -30.0551   -22.5570m   -2.3818m   11.6083m 
    2.34000n  -30.0490   -20.5270m   -2.6096m   10.1752m 
    2.35000n  -30.0429   -18.4969m   -2.8373m    8.7421m 
    2.36000n  -30.0368   -16.4669m   -3.0650m    7.3091m 
    2.37000n  -30.0307   -14.4368m   -3.2927m    5.8760m 
    2.38000n  -30.0246   -12.4068m   -3.5205m    4.4429m 
    2.39000n  -30.0185   -10.3767m   -3.7482m    3.0099m 
    2.40000n  -30.0124    -8.3467m   -3.9759m    1.5768m 
    2.41000n  -30.0063    -6.3166m   -4.2036m  143.7549u 
    2.42000n  -30.0002    -4.2866m   -4.4313m   -1.2893m 
    2.43000n  -29.9941    -2.2565m   -4.6591m   -2.7224m 
    2.44000n  -29.9880  -226.4697u   -4.8868m   -4.1554m 
    2.45000n  -29.9819     1.8036m   -5.1145m   -5.5885m 
    2.46000n  -29.9758     3.8336m   -5.3422m   -7.0216m 
    2.47000n  -29.9696     5.8637m   -5.5700m   -8.4546m 
    2.48000n  -29.9635     7.8937m   -5.7977m   -9.8877m 
    2.49000n  -29.9574     9.9238m   -6.0254m  -11.3208m 
    2.50000n  -29.9513    11.9538m   -6.2531m  -12.7538m 
    2.51000n  -29.9452    13.9839m   -6.4808m  -14.1869m 
    2.52000n  -29.9391    16.0139m   -6.7086m  -15.6199m 
    2.53000n  -29.9330    18.0440m   -6.9363m  -17.0530m 
    2.54000n  -29.9269    20.0740m   -7.1640m  -18.4861m 
    2.55000n  -29.9208    22.1041m   -7.3917m  -19.9191m 
    2.56000n  -29.9147    24.1341m   -7.6195m  -21.3522m 
    2.57000n  -29.9086    26.1642m   -7.8472m  -22.7853m 
    2.58000n  -29.9025    28.1942m   -8.0749m  -24.2183m 
    2.59000n  -29.8964    30.2243m   -8.3026m  -25.6514m 
    2.60000n  -29.8903    32.2544m   -8.5303m  -27.0845m 
    2.61000n  -29.8842    34.2844m   -8.7581m  -28.5175m 
    2.62000n  -29.8780    36.3145m   -8.9858m  -29.9506m 
    2.63000n  -29.8719    38.3445m   -9.2135m  -31.3836m 
    2.64000n  -29.8658    40.3746m   -9.4412m  -32.8167m 
    2.65000n  -29.8597    42.4046m   -9.6690m  -34.2498m 
    2.66000n  -29.8562    43.6583m   -9.7038m  -35.0435m 
    2.67000n  -29.8631    41.8559m   -8.9796m  -33.3209m 
    2.68000n  -29.8700    40.0536m   -8.2554m  -31.5984m 
    2.69000n  -29.8769    38.2513m   -7.5311m  -29.8758m 
    2.70000n  -29.8838    36.4489m   -6.8069m  -28.1532m 
    2.71000n  -29.8907    34.6466m   -6.0827m  -26.4306m 
    2.72000n  -29.8976    32.8443m   -5.3584m  -24.7080m 
    2.73000n  -29.9044    31.0419m   -4.6342m  -22.9854m 
    2.74000n  -29.9113    29.2396m   -3.9100m  -21.2628m 
    2.75000n  -29.9182    27.4373m   -3.1857m  -19.5402m 
    2.76000n  -29.9251    25.6350m   -2.4615m  -17.8176m 
    2.77000n  -29.9320    23.8326m   -1.7373m  -16.0950m 
    2.78000n  -29.9389    22.0303m   -1.0131m  -14.3724m 
    2.79000n  -29.9457    20.2280m -288.8206u  -12.6498m 
    2.80000n  -29.9526    18.4256m  435.4107u  -10.9272m 
    2.81000n  -29.9595    16.6233m    1.1596m   -9.2046m 
    2.82000n  -29.9664    14.8210m    1.8839m   -7.4820m 
    2.83000n  -29.9733    13.0186m    2.6081m   -5.7594m 
    2.84000n  -29.9802    11.2163m    3.3323m   -4.0368m 
    2.85000n  -29.9870     9.4140m    4.0566m   -2.3142m 
    2.86000n  -29.9939     7.6116m    4.7808m -591.6282u 
    2.87000n  -30.0008     5.8093m    5.5050m    1.1310m 
    2.88000n  -30.0077     4.0070m    6.2293m    2.8536m 
    2.89000n  -30.0146     2.2046m    6.9535m    4.5762m 
    2.90000n  -30.0215   402.3082u    7.6777m    6.2988m 
    2.91000n  -30.0283    -1.4000m    8.4020m    8.0214m 
    2.92000n  -30.0352    -3.2024m    9.1262m    9.7439m 
    2.93000n  -30.0421    -5.0047m    9.8504m   11.4665m 
    2.94000n  -30.0490    -6.8070m   10.5746m   13.1891m 
    2.95000n  -30.0559    -8.6094m   11.2989m   14.9117m 
    2.96000n  -30.0628   -10.4117m   12.0231m   16.6343m 
    2.97000n  -30.0697   -12.2140m   12.7473m   18.3569m 
    2.98000n  -30.0765   -14.0163m   13.4716m   20.0795m 
    2.99000n  -30.0834   -15.8187m   14.1958m   21.8021m 
    3.00000n  -30.0903   -17.6210m   14.9200m   23.5247m 
    3.01000n  -30.0972   -19.4233m   15.6443m   25.2473m 
    3.02000n  -30.1041   -21.2257m   16.3685m   26.9699m 
    3.03000n  -30.1110   -23.0280m   17.0927m   28.6925m 
    3.04000n  -30.1178   -24.8303m   17.8170m   30.4151m 
    3.05000n  -30.1247   -26.6327m   18.5412m   32.1377m 
    3.06000n  -30.1296   -27.9866m   18.9970m   33.3573m 
    3.07000n  -30.1250   -27.1787m   18.1591m   32.1520m 
    3.08000n  -30.1203   -26.3708m   17.3211m   30.9468m 
    3.09000n  -30.1157   -25.5629m   16.4831m   29.7415m 
    3.10000n  -30.1110   -24.7550m   15.6451m   28.5362m 
    3.11000n  -30.1064   -23.9471m   14.8072m   27.3309m 
    3.12000n  -30.1017   -23.1392m   13.9692m   26.1257m 
    3.13000n  -30.0971   -22.3313m   13.1312m   24.9204m 
    3.14000n  -30.0924   -21.5234m   12.2933m   23.7151m 
    3.15000n  -30.0878   -20.7155m   11.4553m   22.5099m 
    3.16000n  -30.0831   -19.9076m   10.6173m   21.3046m 
    3.17000n  -30.0785   -19.0997m    9.7793m   20.0993m 
    3.18000n  -30.0738   -18.2918m    8.9414m   18.8941m 
    3.19000n  -30.0692   -17.4839m    8.1034m   17.6888m 
    3.20000n  -30.0645   -16.6760m    7.2654m   16.4835m 
    3.21000n  -30.0599   -15.8681m    6.4274m   15.2783m 
    3.22000n  -30.0552   -15.0602m    5.5895m   14.0730m 
    3.23000n  -30.0506   -14.2523m    4.7515m   12.8677m 
    3.24000n  -30.0459   -13.4444m    3.9135m   11.6625m 
    3.25000n  -30.0413   -12.6365m    3.0755m   10.4572m 
    3.26000n  -30.0366   -11.8286m    2.2376m    9.2519m 
    3.27000n  -30.0320   -11.0207m    1.3996m    8.0467m 
    3.28000n  -30.0273   -10.2128m  561.6203u    6.8414m 
    3.29000n  -30.0227    -9.4049m -276.3534u    5.6361m 
    3.30000n  -30.0180    -8.5970m   -1.1143m    4.4308m 
    3.31000n  -30.0134    -7.7891m   -1.9523m    3.2256m 
    3.32000n  -30.0087    -6.9813m   -2.7903m    2.0203m 
    3.33000n  -30.0041    -6.1734m   -3.6282m  815.0397u 
    3.34000n  -29.9994    -5.3655m   -4.4662m -390.2288u 
    3.35000n  -29.9948    -4.5576m   -5.3042m   -1.5955m 
    3.36000n  -29.9901    -3.7497m   -6.1422m   -2.8008m 
    3.37000n  -29.9854    -2.9418m   -6.9801m   -4.0060m 
    3.38000n  -29.9808    -2.1339m   -7.8181m   -5.2113m 
    3.39000n  -29.9761    -1.3260m   -8.6561m   -6.4166m 
    3.40000n  -29.9715  -518.0754u   -9.4941m   -7.6218m 
    3.41000n  -29.9668   289.8215u  -10.3320m   -8.8271m 
    3.42000n  -29.9622     1.0977m  -11.1700m  -10.0324m 
    3.43000n  -29.9575     1.9056m  -12.0080m  -11.2376m 
    3.44000n  -29.9529     2.7135m  -12.8460m  -12.4429m 
    3.45000n  -29.9482     3.5214m  -13.6839m  -13.6482m 
    3.46000n  -29.9436     4.3293m  -14.5219m  -14.8535m 
    3.47000n  -29.9389     5.1372m  -15.3599m  -16.0587m 
    3.48000n  -29.9343     5.9451m  -16.1979m  -17.2640m 
    3.49000n  -29.9296     6.7530m  -17.0358m  -18.4693m 
    3.50000n  -29.9250     7.5609m  -17.8738m  -19.6745m 
    3.51000n  -29.9203     8.3688m  -18.7118m  -20.8798m 
    3.52000n  -29.9157     9.1767m  -19.5497m  -22.0851m 
    3.53000n  -29.9110     9.9846m  -20.3877m  -23.2903m 
    3.54000n  -29.9064    10.7925m  -21.2257m  -24.4956m 
    3.55000n  -29.9017    11.6004m  -22.0637m  -25.7009m 
    3.56000n  -29.8971    12.4083m  -22.9016m  -26.9061m 
    3.57000n  -29.8924    13.2162m  -23.7396m  -28.1114m 
    3.58000n  -29.8878    14.0241m  -24.5776m  -29.3167m 
    3.59000n  -29.8892    14.0139m  -24.1368m  -28.9430m 
    3.60000n  -29.8926    13.7473m  -23.2953m  -28.0745m 
    3.61000n  -29.8959    13.4807m  -22.4537m  -27.2059m 
    3.62000n  -29.8992    13.2141m  -21.6122m  -26.3374m 
    3.63000n  -29.9026    12.9476m  -20.7707m  -25.4689m 
    3.64000n  -29.9059    12.6810m  -19.9291m  -24.6004m 
    3.65000n  -29.9092    12.4144m  -19.0876m  -23.7319m 
    3.66000n  -29.9126    12.1479m  -18.2461m  -22.8634m 
    3.67000n  -29.9159    11.8813m  -17.4045m  -21.9948m 
    3.68000n  -29.9193    11.6147m  -16.5630m  -21.1263m 
    3.69000n  -29.9226    11.3481m  -15.7215m  -20.2578m 
    3.70000n  -29.9259    11.0816m  -14.8799m  -19.3893m 
    3.71000n  -29.9293    10.8150m  -14.0384m  -18.5208m 
    3.72000n  -29.9326    10.5484m  -13.1969m  -17.6523m 
    3.73000n  -29.9360    10.2818m  -12.3553m  -16.7837m 
    3.74000n  -29.9393    10.0153m  -11.5138m  -15.9152m 
    3.75000n  -29.9426     9.7487m  -10.6722m  -15.0467m 
    3.76000n  -29.9460     9.4821m   -9.8307m  -14.1782m 
    3.77000n  -29.9493     9.2155m   -8.9892m  -13.3097m 
    3.78000n  -29.9526     8.9490m   -8.1476m  -12.4412m 
    3.79000n  -29.9560     8.6824m   -7.3061m  -11.5726m 
    3.80000n  -29.9593     8.4158m   -6.4646m  -10.7041m 
    3.81000n  -29.9627     8.1492m   -5.6230m   -9.8356m 
    3.82000n  -29.9660     7.8827m   -4.7815m   -8.9671m 
    3.83000n  -29.9693     7.6161m   -3.9400m   -8.0986m 
    3.84000n  -29.9727     7.3495m   -3.0984m   -7.2300m 
    3.85000n  -29.9760     7.0830m   -2.2569m   -6.3615m 
    3.86000n  -29.9794     6.8164m   -1.4154m   -5.4930m 
    3.87000n  -29.9827     6.5498m -573.8406u   -4.6245m 
    3.88000n  -29.9860     6.2832m  267.6935u   -3.7560m 
    3.89000n  -29.9894     6.0167m    1.1092m   -2.8875m 
    3.90000n  -29.9927     5.7501m    1.9508m   -2.0189m 
    3.91000n  -29.9960     5.4835m    2.7923m   -1.1504m 
    3.92000n  -29.9994     5.2169m    3.6338m -281.9147u 
    3.93000n  -30.0027     4.9504m    4.4754m  586.6023u 
    3.94000n  -30.0061     4.6838m    5.3169m    1.4551m 
    3.95000n  -30.0094     4.4172m    6.1584m    2.3236m 
    3.96000n  -30.0127     4.1506m    7.0000m    3.1922m 
    3.97000n  -30.0161     3.8841m    7.8415m    4.0607m 
    3.98000n  -30.0194     3.6175m    8.6830m    4.9292m 
    3.99000n  -30.0228     3.3509m    9.5246m    5.7977m 
    4.00000n  -30.0261     3.0843m   10.3661m    6.6662m 
    4.01000n  -30.0294     2.8178m   11.2076m    7.5347m 
    4.02000n  -30.0328     2.5512m   12.0492m    8.4033m 
    4.03000n  -30.0361     2.2846m   12.8907m    9.2718m 
    4.04000n  -30.0394     2.0180m   13.7322m   10.1403m 
    4.05000n  -30.0428     1.7515m   14.5738m   11.0088m 
    4.06000n  -30.0461     1.4849m   15.4153m   11.8773m 
    4.07000n  -30.0495     1.2183m   16.2568m   12.7458m 
    4.08000n  -30.0528   951.7537u   17.0984m   13.6144m 
    4.09000n  -30.0561   685.1799u   17.9399m   14.4829m 
    4.10000n  -30.0595   418.6061u   18.7814m   15.3514m 
    4.11000n  -30.0628   152.0323u   19.6230m   16.2199m 
    4.12000n  -30.0662  -114.5414u   20.4645m   17.0884m 
    4.13000n  -30.0695  -381.1152u   21.3060m   17.9569m 
    4.14000n  -30.0728  -647.6890u   22.1476m   18.8255m 
    4.15000n  -30.0762  -914.2628u   22.9891m   19.6940m 
    4.16000n  -30.0795    -1.1808m   23.8306m   20.5625m 
    4.17000n  -30.0828    -1.4474m   24.6722m   21.4310m 
    4.18000n  -30.0862    -1.7140m   25.5137m   22.2995m 
    4.19000n  -30.0895    -1.9806m   26.3553m   23.1680m 
    4.20000n  -30.0929    -2.2471m   27.1968m   24.0366m 
    4.21000n  -30.0962    -2.5137m   28.0383m   24.9051m 
    4.22000n  -30.0949    -2.6281m   27.5585m   24.5794m 
    4.23000n  -30.0923    -2.6999m   26.7080m   23.9186m 
    4.24000n  -30.0897    -2.7716m   25.8575m   23.2579m 
    4.25000n  -30.0871    -2.8434m   25.0070m   22.5972m 
    4.26000n  -30.0845    -2.9152m   24.1565m   21.9365m 
    4.27000n  -30.0820    -2.9869m   23.3060m   21.2757m 
    4.28000n  -30.0794    -3.0587m   22.4555m   20.6150m 
    4.29000n  -30.0768    -3.1304m   21.6050m   19.9543m 
    4.30000n  -30.0742    -3.2022m   20.7545m   19.2936m 
    4.31000n  -30.0716    -3.2739m   19.9040m   18.6328m 
    4.32000n  -30.0690    -3.3457m   19.0535m   17.9721m 
    4.33000n  -30.0664    -3.4174m   18.2030m   17.3114m 
    4.34000n  -30.0638    -3.4892m   17.3525m   16.6507m 
    4.35000n  -30.0612    -3.5609m   16.5020m   15.9899m 
    4.36000n  -30.0587    -3.6327m   15.6515m   15.3292m 
    4.37000n  -30.0561    -3.7045m   14.8010m   14.6685m 
    4.38000n  -30.0535    -3.7762m   13.9505m   14.0078m 
    4.39000n  -30.0509    -3.8480m   13.1000m   13.3470m 
    4.40000n  -30.0483    -3.9197m   12.2495m   12.6863m 
    4.41000n  -30.0457    -3.9915m   11.3990m   12.0256m 
    4.42000n  -30.0431    -4.0632m   10.5485m   11.3649m 
    4.43000n  -30.0405    -4.1350m    9.6980m   10.7042m 
    4.44000n  -30.0379    -4.2067m    8.8476m   10.0434m 
    4.45000n  -30.0353    -4.2785m    7.9971m    9.3827m 
    4.46000n  -30.0328    -4.3503m    7.1466m    8.7220m 
    4.47000n  -30.0302    -4.4220m    6.2961m    8.0613m 
    4.48000n  -30.0276    -4.4938m    5.4456m    7.4005m 
    4.49000n  -30.0250    -4.5655m    4.5951m    6.7398m 
    4.50000n  -30.0224    -4.6373m    3.7446m    6.0791m 
    4.51000n  -30.0198    -4.7090m    2.8941m    5.4184m 
    4.52000n  -30.0172    -4.7808m    2.0436m    4.7576m 
    4.53000n  -30.0146    -4.8525m    1.1931m    4.0969m 
    4.54000n  -30.0120    -4.9243m  342.5783u    3.4362m 
    4.55000n  -30.0094    -4.9960m -507.9189u    2.7755m 
    4.56000n  -30.0069    -5.0678m   -1.3584m    2.1147m 
    4.57000n  -30.0043    -5.1396m   -2.2089m    1.4540m 
    4.58000n  -30.0017    -5.2113m   -3.0594m  793.2908u 
    4.59000n  -29.9991    -5.2831m   -3.9099m  132.5667u 
    4.60000n  -29.9965    -5.3548m   -4.7604m -528.1574u 
    4.61000n  -29.9939    -5.4266m   -5.6109m   -1.1889m 
    4.62000n  -29.9913    -5.4983m   -6.4614m   -1.8496m 
    4.63000n  -29.9887    -5.5701m   -7.3119m   -2.5103m 
    4.64000n  -29.9861    -5.6418m   -8.1624m   -3.1711m 
    4.65000n  -29.9835    -5.7136m   -9.0129m   -3.8318m 
    4.66000n  -29.9810    -5.7853m   -9.8634m   -4.4925m 
    4.67000n  -29.9784    -5.8571m  -10.7139m   -5.1532m 
    4.68000n  -29.9758    -5.9289m  -11.5644m   -5.8140m 
    4.69000n  -29.9732    -6.0006m  -12.4149m   -6.4747m 
    4.70000n  -29.9706    -6.0724m  -13.2654m   -7.1354m 
    4.71000n  -29.9680    -6.1441m  -14.1159m   -7.7961m 
    4.72000n  -29.9654    -6.2159m  -14.9664m   -8.4568m 
    4.73000n  -29.9628    -6.2876m  -15.8169m   -9.1176m 
    4.74000n  -29.9602    -6.3594m  -16.6674m   -9.7783m 
    4.75000n  -29.9576    -6.4311m  -17.5179m  -10.4390m 
    4.76000n  -29.9551    -6.5029m  -18.3684m  -11.0997m 
    4.77000n  -29.9525    -6.5746m  -19.2189m  -11.7605m 
    4.78000n  -29.9499    -6.6464m  -20.0694m  -12.4212m 
    4.79000n  -29.9473    -6.7182m  -20.9199m  -13.0819m 
    4.80000n  -29.9447    -6.7899m  -21.7704m  -13.7426m 
    4.81000n  -29.9421    -6.8617m  -22.6208m  -14.4034m 
    4.82000n  -29.9395    -6.9334m  -23.4713m  -15.0641m 
    4.83000n  -29.9369    -7.0052m  -24.3218m  -15.7248m 
    4.84000n  -29.9343    -7.0769m  -25.1723m  -16.3855m 
    4.85000n  -29.9317    -7.1487m  -26.0228m  -17.0463m 
    4.86000n  -29.9292    -7.2204m  -26.8733m  -17.7070m 
    4.87000n  -29.9266    -7.2922m  -27.7238m  -18.3677m 
    4.88000n  -29.9240    -7.3639m  -28.5743m  -19.0284m 
    4.89000n  -29.9214    -7.4357m  -29.4248m  -19.6892m 
    4.90000n  -29.9188    -7.5075m  -30.2753m  -20.3499m 
    4.91000n  -29.9212    -7.0887m  -29.2598m  -19.7748m 
    4.92000n  -29.9236    -6.6670m  -28.2331m  -19.1923m 
    4.93000n  -29.9260    -6.2453m  -27.2064m  -18.6097m 
    4.94000n  -29.9284    -5.8236m  -26.1797m  -18.0272m 
    4.95000n  -29.9308    -5.4019m  -25.1530m  -17.4447m 
    4.96000n  -29.9332    -4.9802m  -24.1263m  -16.8621m 
    4.97000n  -29.9356    -4.5585m  -23.0995m  -16.2796m 
    4.98000n  -29.9381    -4.1368m  -22.0728m  -15.6970m 
    4.99000n  -29.9405    -3.7151m  -21.0461m  -15.1145m 
    5.00000n  -29.9429    -3.2934m  -20.0194m  -14.5320m 
    5.01000n  -29.9453    -2.8717m  -18.9927m  -13.9494m 
    5.02000n  -29.9477    -2.4500m  -17.9660m  -13.3669m 
    5.03000n  -29.9501    -2.0283m  -16.9392m  -12.7844m 
    5.04000n  -29.9525    -1.6066m  -15.9125m  -12.2018m 
    5.05000n  -29.9549    -1.1849m  -14.8858m  -11.6193m 
    5.06000n  -29.9573  -763.1695u  -13.8591m  -11.0368m 
    5.07000n  -29.9597  -341.4670u  -12.8324m  -10.4542m 
    5.08000n  -29.9622    80.2355u  -11.8056m   -9.8717m 
    5.09000n  -29.9646   501.9379u  -10.7789m   -9.2892m 
    5.10000n  -29.9670   923.6404u   -9.7522m   -8.7066m 
    5.11000n  -29.9694     1.3453m   -8.7255m   -8.1241m 
    5.12000n  -29.9718     1.7670m   -7.6988m   -7.5416m 
    5.13000n  -29.9742     2.1887m   -6.6721m   -6.9590m 
    5.14000n  -29.9766     2.6105m   -5.6453m   -6.3765m 
    5.15000n  -29.9790     3.0322m   -4.6186m   -5.7940m 
    5.16000n  -29.9814     3.4539m   -3.5919m   -5.2114m 
    5.17000n  -29.9838     3.8756m   -2.5652m   -4.6289m 
    5.18000n  -29.9863     4.2973m   -1.5385m   -4.0464m 
    5.19000n  -29.9887     4.7190m -511.7630u   -3.4638m 
    5.20000n  -29.9911     5.1407m  514.9540u   -2.8813m 
    5.21000n  -29.9935     5.5624m    1.5417m   -2.2988m 
    5.22000n  -29.9959     5.9841m    2.5684m   -1.7162m 
    5.23000n  -29.9983     6.4058m    3.5951m   -1.1337m 
    5.24000n  -30.0007     6.8275m    4.6218m -551.1713u 
    5.25000n  -30.0031     7.2492m    5.6485m   31.3625u 
    5.26000n  -30.0055     7.6709m    6.6753m  613.8962u 
    5.27000n  -30.0079     8.0926m    7.7020m    1.1964m 
    5.28000n  -30.0104     8.5143m    8.7287m    1.7790m 
    5.29000n  -30.0128     8.9360m    9.7554m    2.3615m 
    5.30000n  -30.0152     9.3577m   10.7821m    2.9440m 
    5.31000n  -30.0176     9.7794m   11.8088m    3.5266m 
    5.32000n  -30.0200    10.2011m   12.8356m    4.1091m 
    5.33000n  -30.0224    10.6228m   13.8623m    4.6916m 
    5.34000n  -30.0248    11.0445m   14.8890m    5.2742m 
    5.35000n  -30.0272    11.4662m   15.9157m    5.8567m 
    5.36000n  -30.0296    11.8879m   16.9424m    6.4392m 
    5.37000n  -30.0320    12.3096m   17.9691m    7.0218m 
    5.38000n  -30.0345    12.7313m   18.9959m    7.6043m 
    5.39000n  -30.0369    13.1530m   20.0226m    8.1868m 
    5.40000n  -30.0393    13.5747m   21.0493m    8.7694m 
    5.41000n  -30.0417    13.9964m   22.0760m    9.3519m 
    5.42000n  -30.0441    14.4181m   23.1027m    9.9344m 
    5.43000n  -30.0465    14.8398m   24.1294m   10.5170m 
    5.44000n  -30.0489    15.2615m   25.1562m   11.0995m 
    5.45000n  -30.0513    15.6832m   26.1829m   11.6820m 
    5.46000n  -30.0537    16.1049m   27.2096m   12.2646m 
    5.47000n  -30.0561    16.5266m   28.2363m   12.8471m 
    5.48000n  -30.0586    16.9483m   29.2630m   13.4296m 
    5.49000n  -30.0610    17.3700m   30.2897m   14.0122m 
    5.50000n  -30.0634    17.7917m   31.3165m   14.5947m 
    5.51000n  -29.7069    30.2482m   44.6552m   38.0543m 
    5.52000n  -29.3504    42.7047m   57.9940m   61.5138m 
    5.53000n  -28.9939    55.1611m   71.3328m   84.9734m 
    5.54000n  -28.6375    67.6176m   84.6715m  108.4329m 
    5.55000n  -28.2810    80.0741m   98.0103m  131.8925m 
    5.56000n  -27.9245    92.5305m  111.3491m  155.3520m 
    5.57000n  -27.4307   101.8284m  112.8267m  162.4643m 
    5.58000n  -26.8911   110.0734m  110.3506m  164.1275m 
    5.59000n  -26.3516   118.3185m  107.8745m  165.7906m 
    5.60000n  -25.8120   126.5635m  105.3984m  167.4538m 
    5.61000n  -25.2724   134.8085m  102.9223m  169.1169m 
    5.62000n  -24.7329   143.0535m  100.4462m  170.7801m 
    5.63000n  -24.1933   151.2986m   97.9700m  172.4433m 
    5.64000n  -23.6537   159.5436m   95.4939m  174.1064m 
    5.65000n  -23.1141   167.7886m   93.0178m  175.7696m 
    5.66000n  -22.4935   176.4148m   92.4257m  171.3358m 
    5.67000n  -21.8533   185.1332m   92.2897m  165.4260m 
    5.68000n  -21.2131   193.8516m   92.1537m  159.5162m 
    5.69000n  -20.5729   202.5700m   92.0177m  153.6064m 
    5.70000n  -19.9327   211.2884m   91.8817m  147.6966m 
    5.71000n  -19.2925   220.0069m   91.7457m  141.7868m 
    5.72000n  -18.6523   228.7253m   91.6097m  135.8770m 
    5.73000n  -18.0120   237.4437m   91.4737m  129.9671m 
    5.74000n  -17.3718   246.1621m   91.3377m  124.0573m 
    5.75000n  -16.7316   254.8805m   91.2017m  118.1475m 
    5.76000n  -16.0914   263.5990m   91.0657m  112.2377m 
    5.77000n  -15.4512   272.3174m   90.9297m  106.3279m 
    5.78000n  -14.8110   281.0358m   90.7937m  100.4181m 
    5.79000n  -14.1707   289.7542m   90.6578m   94.5083m 
    5.80000n  -13.5305   298.4726m   90.5218m   88.5985m 
    5.81000n  -12.8903   307.1910m   90.3858m   82.6887m 
    5.82000n  -12.2501   315.9095m   90.2498m   76.7789m 
    5.83000n  -11.6099   324.6279m   90.1138m   70.8691m 
    5.84000n  -10.9697   333.3463m   89.9778m   64.9593m 
    5.85000n  -10.3295   342.0647m   89.8418m   59.0494m 
    5.86000n   -9.6892   350.7831m   89.7058m   53.1396m 
    5.87000n   -9.0490   359.5015m   89.5698m   47.2298m 
    5.88000n   -8.4088   368.2200m   89.4338m   41.3200m 
    5.89000n   -7.7686   376.9384m   89.2978m   35.4102m 
    5.90000n   -7.1284   385.6568m   89.1618m   29.5004m 
    5.91000n   -6.4882   394.3752m   89.0258m   23.5906m 
    5.92000n   -5.8479   403.0936m   88.8898m   17.6808m 
    5.93000n   -5.2077   411.8121m   88.7538m   11.7710m 
    5.94000n   -4.5890   418.2944m   91.1775m    9.8089m 
    5.95000n   -4.0670   414.6858m  105.1530m   25.6625m 
    5.96000n   -3.5451   411.0772m  119.1285m   41.5161m 
    5.97000n   -3.0232   407.4686m  133.1040m   57.3698m 
    5.98000n   -2.5012   403.8600m  147.0796m   73.2234m 
    5.99000n   -1.9793   400.2514m  161.0551m   89.0770m 
    6.00000n   -1.4574   396.6428m  175.0306m  104.9306m 
    6.01000n   -1.3042   372.1762m  159.2659m   92.3267m 
    6.02000n   -1.1510   347.7097m  143.5011m   79.7227m 
    6.03000n -997.8331m  323.2431m  127.7364m   67.1188m 
    6.04000n -844.6586m  298.7766m  111.9716m   54.5148m 
    6.05000n -691.4841m  274.3100m   96.2069m   41.9109m 
    6.06000n -538.3096m  249.8435m   80.4422m   29.3070m 
    6.07000n -385.1351m  225.3769m   64.6774m   16.7030m 
    6.08000n -231.9606m  200.9104m   48.9127m    4.0991m 
    6.09000n  -78.7861m  176.4438m   33.1479m   -8.5049m 
    6.10000n   67.5627m  153.0665m   18.2172m  -20.5607m 
    6.11000n  158.5556m  138.5230m   10.0502m  -28.1718m 
    6.12000n  249.5485m  123.9795m    1.8833m  -35.7828m 
    6.13000n  340.5415m  109.4360m   -6.2837m  -43.3939m 
    6.14000n  368.5047m   99.2134m   -8.1274m  -44.2639m 
    6.15000n  336.8478m   93.0782m   -3.9898m  -38.7575m 
    6.16000n  305.1908m   86.9429m  147.7993u  -33.2511m 
    6.17000n  273.5339m   80.8076m    4.2854m  -27.7446m 
    6.18000n  241.8769m   74.6723m    8.4230m  -22.2382m 
    6.19000n  210.2200m   68.5370m   12.5605m  -16.7318m 
    6.20000n  178.5630m   62.4017m   16.6981m  -11.2254m 
    6.21000n  146.9060m   56.2664m   20.8357m   -5.7189m 
    6.22000n  115.2491m   50.1311m   24.9733m -212.5138u 
    6.23000n   83.5921m   43.9958m   29.1108m    5.2939m 
    6.24000n   51.9352m   37.8605m   33.2484m   10.8003m 
    6.25000n   20.4664m   31.7445m   37.3400m   16.2670m 
    6.26000n   15.2753m   28.3182m   35.0099m   16.1783m 
    6.27000n   10.0842m   24.8920m   32.6797m   16.0896m 
    6.28000n    4.8930m   21.4657m   30.3496m   16.0010m 
    6.29000n -298.0687u   18.0395m   28.0194m   15.9123m 
    6.30000n   -5.4892m   14.6132m   25.6893m   15.8236m 
    6.31000n  -10.6803m   11.1870m   23.3592m   15.7349m 
    6.32000n  -15.8714m    7.7607m   21.0290m   15.6463m 
    6.33000n  -21.0625m    4.3345m   18.6989m   15.5576m 
    6.34000n  -26.2537m  908.2401u   16.3687m   15.4689m 
    6.35000n  -31.4448m   -2.5180m   14.0386m   15.3803m 
    6.36000n  -36.6359m   -5.9443m   11.7085m   15.2916m 
    6.37000n  -41.8270m   -9.3705m    9.3783m   15.2029m 
    6.38000n  -47.0181m  -12.7968m    7.0482m   15.1142m 
    6.39000n  -52.2092m  -16.2230m    4.7180m   15.0256m 
    6.40000n  -57.4004m  -19.6493m    2.3879m   14.9369m 
    6.41000n  -62.5915m  -23.0755m   57.7443u   14.8482m 
    6.42000n  -67.7826m  -26.5018m   -2.2724m   14.7596m 
    6.43000n  -72.9737m  -29.9280m   -4.6025m   14.6709m 
    6.44000n  -78.1648m  -33.3543m   -6.9327m   14.5822m 
    6.45000n  -83.3560m  -36.7805m   -9.2628m   14.4935m 
    6.46000n  -88.5471m  -40.2068m  -11.5930m   14.4049m 
    6.47000n  -93.7382m  -43.6330m  -13.9231m   14.3162m 
    6.48000n  -98.9293m  -47.0593m  -16.2532m   14.2275m 
    6.49000n -100.2264m  -48.7223m  -18.0250m   13.5886m 
    6.50000n  -84.0603m  -42.4778m  -17.2926m   10.4823m 
    6.51000n  -67.8942m  -36.2334m  -16.5602m    7.3759m 
    6.52000n  -51.7281m  -29.9889m  -15.8278m    4.2695m 
    6.53000n  -35.5620m  -23.7445m  -15.0953m    1.1631m 
    6.54000n  -19.3959m  -17.5000m  -14.3629m   -1.9433m 
    6.55000n   -3.2297m  -11.2556m  -13.6305m   -5.0497m 
    6.56000n   12.9364m   -5.0111m  -12.8981m   -8.1560m 
    6.57000n   29.1025m    1.2333m  -12.1657m  -11.2624m 
    6.58000n   45.2686m    7.4778m  -11.4333m  -14.3688m 
    6.59000n   61.4347m   13.7223m  -10.7008m  -17.4752m 
    6.60000n   77.6008m   19.9667m   -9.9684m  -20.5816m 
    6.61000n   93.7669m   26.2112m   -9.2360m  -23.6880m 
    6.62000n  109.9331m   32.4556m   -8.5036m  -26.7943m 
    6.63000n  126.0992m   38.7001m   -7.7712m  -29.9007m 
    6.64000n  142.2653m   44.9445m   -7.0388m  -33.0071m 
    6.65000n  158.4314m   51.1890m   -6.3063m  -36.1135m 
    6.66000n  157.2104m   51.1973m   -5.7687m  -35.6506m 
    6.67000n  150.2657m   49.1526m   -5.2952m  -34.0128m 
    6.68000n  143.3209m   47.1080m   -4.8217m  -32.3750m 
    6.69000n  136.3762m   45.0634m   -4.3482m  -30.7372m 
    6.70000n  129.4315m   43.0187m   -3.8747m  -29.0994m 
    6.71000n  122.4868m   40.9741m   -3.4011m  -27.4616m 
    6.72000n  115.5420m   38.9294m   -2.9276m  -25.8237m 
    6.73000n  108.5973m   36.8848m   -2.4541m  -24.1859m 
    6.74000n  101.6526m   34.8402m   -1.9806m  -22.5481m 
    6.75000n   94.7078m   32.7955m   -1.5071m  -20.9103m 
    6.76000n   87.7631m   30.7509m   -1.0336m  -19.2725m 
    6.77000n   80.8184m   28.7063m -560.0649u  -17.6346m 
    6.78000n   73.8737m   26.6616m  -86.5526u  -15.9968m 
    6.79000n   66.9289m   24.6170m  386.9596u  -14.3590m 
    6.80000n   59.9842m   22.5723m  860.4719u  -12.7212m 
    6.81000n   53.0395m   20.5277m    1.3340m  -11.0834m 
    6.82000n   46.0947m   18.4831m    1.8075m   -9.4456m 
    6.83000n   39.1500m   16.4384m    2.2810m   -7.8077m 
    6.84000n   32.2053m   14.3938m    2.7545m   -6.1699m 
    6.85000n   25.2606m   12.3492m    3.2280m   -4.5321m 
    6.86000n   18.3158m   10.3045m    3.7015m   -2.8943m 
    6.87000n   11.3711m    8.2599m    4.1751m   -1.2565m 
    6.88000n    4.4264m    6.2153m    4.6486m  381.3519u 
    6.89000n   -2.5184m    4.1706m    5.1221m    2.0192m 
    6.90000n   -9.4631m    2.1260m    5.5956m    3.6570m 
    6.91000n  -16.4078m   81.3448u    6.0691m    5.2948m 
    6.92000n  -23.3525m   -1.9633m    6.5426m    6.9326m 
    6.93000n  -30.2973m   -4.0079m    7.0161m    8.5704m 
    6.94000n  -37.2420m   -6.0526m    7.4896m   10.2083m 
    6.95000n  -44.1867m   -8.0972m    7.9632m   11.8461m 
    6.96000n  -51.1315m  -10.1418m    8.4367m   13.4839m 
    6.97000n  -58.0762m  -12.1865m    8.9102m   15.1217m 
    6.98000n  -65.0209m  -14.2311m    9.3837m   16.7595m 
    6.99000n  -71.9656m  -16.2757m    9.8572m   18.3973m 
    7.00000n  -78.9104m  -18.3204m   10.3307m   20.0352m 
    7.01000n  -85.8551m  -20.3650m   10.8042m   21.6730m 
    7.02000n  -92.7998m  -22.4097m   11.2777m   23.3108m 
    7.03000n  -99.7446m  -24.4543m   11.7513m   24.9486m 
    7.04000n -106.6893m  -26.4989m   12.2248m   26.5864m 
    7.05000n -113.6340m  -28.5436m   12.6983m   28.2243m 
    7.06000n -120.5787m  -30.5882m   13.1718m   29.8621m 
    7.07000n -127.5235m  -32.6328m   13.6453m   31.4999m 
    7.08000n -134.4682m  -34.6775m   14.1188m   33.1377m 
    7.09000n -141.4129m  -36.7221m   14.5923m   34.7755m 
    7.10000n -148.3577m  -38.7668m   15.0658m   36.4133m 
    7.11000n -155.3024m  -40.8114m   15.5394m   38.0512m 
    7.12000n -149.1865m  -39.5484m   14.6287m   36.5052m 
    7.13000n -141.3899m  -37.8597m   13.5399m   34.5496m 
    7.14000n -133.5934m  -36.1710m   12.4512m   32.5939m 
    7.15000n -125.7968m  -34.4823m   11.3624m   30.6383m 
    7.16000n -118.0002m  -32.7937m   10.2736m   28.6826m 
    7.17000n -110.2036m  -31.1050m    9.1849m   26.7269m 
    7.18000n -102.4070m  -29.4163m    8.0961m   24.7713m 
    7.19000n  -94.6105m  -27.7276m    7.0073m   22.8156m 
    7.20000n  -86.8139m  -26.0390m    5.9186m   20.8600m 
    7.21000n  -79.0173m  -24.3503m    4.8298m   18.9043m 
    7.22000n  -71.2207m  -22.6616m    3.7410m   16.9487m 
    7.23000n  -63.4241m  -20.9729m    2.6523m   14.9930m 
    7.24000n  -55.6275m  -19.2843m    1.5635m   13.0374m 
    7.25000n  -47.8310m  -17.5956m  474.7490u   11.0817m 
    7.26000n  -40.0344m  -15.9069m -614.0171u    9.1261m 
    7.27000n  -32.2378m  -14.2182m   -1.7028m    7.1704m 
    7.28000n  -24.4412m  -12.5296m   -2.7915m    5.2147m 
    7.29000n  -16.6446m  -10.8409m   -3.8803m    3.2591m 
    7.30000n   -8.8480m   -9.1522m   -4.9691m    1.3034m 
    7.31000n   -1.0515m   -7.4635m   -6.0578m -652.2123u 
    7.32000n    6.7451m   -5.7749m   -7.1466m   -2.6079m 
    7.33000n   14.5417m   -4.0862m   -8.2354m   -4.5635m 
    7.34000n   22.3383m   -2.3975m   -9.3241m   -6.5192m 
    7.35000n   30.1349m -708.8315u  -10.4129m   -8.4748m 
    7.36000n   37.9314m  979.8440u  -11.5017m  -10.4305m 
    7.37000n   45.7280m    2.6685m  -12.5904m  -12.3861m 
    7.38000n   53.5246m    4.3572m  -13.6792m  -14.3418m 
    7.39000n   61.3212m    6.0459m  -14.7680m  -16.2974m 
    7.40000n   69.1178m    7.7345m  -15.8567m  -18.2531m 
    7.41000n   76.9144m    9.4232m  -16.9455m  -20.2088m 
    7.42000n   84.7109m   11.1119m  -18.0343m  -22.1644m 
    7.43000n   92.5075m   12.8006m  -19.1230m  -24.1201m 
    7.44000n  100.3041m   14.4892m  -20.2118m  -26.0757m 
    7.45000n  108.1007m   16.1779m  -21.3006m  -28.0314m 
    7.46000n  115.8973m   17.8666m  -22.3893m  -29.9870m 
    7.47000n  123.6938m   19.5553m  -23.4781m  -31.9427m 
    7.48000n  131.4904m   21.2440m  -24.5669m  -33.8983m 
    7.49000n  133.7467m   21.9540m  -24.7029m  -34.4479m 
    7.50000n  128.6823m   21.3710m  -23.5801m  -33.1397m 
    7.51000n  123.6180m   20.7880m  -22.4573m  -31.8315m 
    7.52000n  118.5536m   20.2051m  -21.3345m  -30.5233m 
    7.53000n  113.4893m   19.6221m  -20.2117m  -29.2151m 
    7.54000n  108.4250m   19.0391m  -19.0888m  -27.9068m 
    7.55000n  103.3606m   18.4561m  -17.9660m  -26.5986m 
    7.56000n   98.2963m   17.8731m  -16.8432m  -25.2904m 
    7.57000n   93.2319m   17.2901m  -15.7204m  -23.9822m 
    7.58000n   88.1676m   16.7071m  -14.5976m  -22.6740m 
    7.59000n   83.1032m   16.1242m  -13.4748m  -21.3658m 
    7.60000n   78.0389m   15.5412m  -12.3520m  -20.0575m 
    7.61000n   72.9746m   14.9582m  -11.2292m  -18.7493m 
    7.62000n   67.9102m   14.3752m  -10.1063m  -17.4411m 
    7.63000n   62.8459m   13.7922m   -8.9835m  -16.1329m 
    7.64000n   57.7815m   13.2092m   -7.8607m  -14.8247m 
    7.65000n   52.7172m   12.6262m   -6.7379m  -13.5164m 
    7.66000n   47.6529m   12.0433m   -5.6151m  -12.2082m 
    7.67000n   42.5885m   11.4603m   -4.4923m  -10.9000m 
    7.68000n   37.5242m   10.8773m   -3.3695m   -9.5918m 
    7.69000n   32.4598m   10.2943m   -2.2466m   -8.2836m 
    7.70000n   27.3955m    9.7113m   -1.1238m   -6.9753m 
    7.71000n   22.3312m    9.1283m   -1.0162u   -5.6671m 
    7.72000n   17.2668m    8.5453m    1.1218m   -4.3589m 
    7.73000n   12.2025m    7.9623m    2.2446m   -3.0507m 
    7.74000n    7.1381m    7.3794m    3.3674m   -1.7425m 
    7.75000n    2.0738m    6.7964m    4.4902m -434.2521u 
    7.76000n   -2.9905m    6.2134m    5.6131m  873.9667u 
    7.77000n   -8.0549m    5.6304m    6.7359m    2.1822m 
    7.78000n  -13.1192m    5.0474m    7.8587m    3.4904m 
    7.79000n  -18.1836m    4.4644m    8.9815m    4.7986m 
    7.80000n  -23.2479m    3.8814m   10.1043m    6.1068m 
    7.81000n  -28.3122m    3.2985m   11.2271m    7.4151m 
    7.82000n  -33.3766m    2.7155m   12.3499m    8.7233m 
    7.83000n  -38.4409m    2.1325m   13.4727m   10.0315m 
    7.84000n  -43.5053m    1.5495m   14.5956m   11.3397m 
    7.85000n  -48.5696m  966.5118u   15.7184m   12.6479m 
    7.86000n  -53.6339m  383.5256u   16.8412m   13.9562m 
    7.87000n  -58.6983m -199.4607u   17.9640m   15.2644m 
    7.88000n  -63.7626m -782.4469u   19.0868m   16.5726m 
    7.89000n  -68.8270m   -1.3654m   20.2096m   17.8808m 
    7.90000n  -73.8913m   -1.9484m   21.3324m   19.1890m 
    7.91000n  -78.9556m   -2.5314m   22.4553m   20.4972m 
    7.92000n  -84.0200m   -3.1144m   23.5781m   21.8055m 
    7.93000n  -89.0843m   -3.6974m   24.7009m   23.1137m 
    7.94000n  -94.1487m   -4.2804m   25.8237m   24.4219m 
    7.95000n  -99.2130m   -4.8634m   26.9465m   25.7301m 
    7.96000n -104.2774m   -5.4463m   28.0693m   27.0383m 
    7.97000n -109.3417m   -6.0293m   29.1921m   28.3466m 
    7.98000n -114.4060m   -6.6123m   30.3149m   29.6548m 
    7.99000n -111.3931m   -6.6355m   29.3791m   28.8827m 
    8.00000n -107.8571m   -6.6225m   28.3100m   27.9759m 
    8.01000n -104.3212m   -6.6094m   27.2409m   27.0692m 
    8.02000n -100.7852m   -6.5964m   26.1718m   26.1624m 
    8.03000n  -97.2493m   -6.5833m   25.1027m   25.2556m 
    8.04000n  -93.7134m   -6.5703m   24.0336m   24.3489m 
    8.05000n  -90.1774m   -6.5573m   22.9645m   23.4421m 
    8.06000n  -86.6415m   -6.5442m   21.8954m   22.5354m 
    8.07000n  -83.1055m   -6.5312m   20.8263m   21.6286m 
    8.08000n  -79.5696m   -6.5181m   19.7572m   20.7218m 
    8.09000n  -76.0336m   -6.5051m   18.6881m   19.8151m 
    8.10000n  -72.4977m   -6.4920m   17.6190m   18.9083m 
    8.11000n  -68.9618m   -6.4790m   16.5499m   18.0015m 
    8.12000n  -65.4258m   -6.4660m   15.4808m   17.0948m 
    8.13000n  -61.8899m   -6.4529m   14.4117m   16.1880m 
    8.14000n  -58.3539m   -6.4399m   13.3426m   15.2812m 
    8.15000n  -54.8180m   -6.4268m   12.2735m   14.3745m 
    8.16000n  -51.2821m   -6.4138m   11.2044m   13.4677m 
    8.17000n  -47.7461m   -6.4007m   10.1353m   12.5609m 
    8.18000n  -44.2102m   -6.3877m    9.0662m   11.6542m 
    8.19000n  -40.6742m   -6.3746m    7.9971m   10.7474m 
    8.20000n  -37.1383m   -6.3616m    6.9280m    9.8406m 
    8.21000n  -33.6023m   -6.3486m    5.8589m    8.9339m 
    8.22000n  -30.0664m   -6.3355m    4.7898m    8.0271m 
    8.23000n  -26.5305m   -6.3225m    3.7207m    7.1203m 
    8.24000n  -22.9945m   -6.3094m    2.6516m    6.2136m 
    8.25000n  -19.4586m   -6.2964m    1.5825m    5.3068m 
    8.26000n  -15.9226m   -6.2833m  513.3792u    4.4001m 
    8.27000n  -12.3867m   -6.2703m -555.7227u    3.4933m 
    8.28000n   -8.8508m   -6.2573m   -1.6248m    2.5865m 
    8.29000n   -5.3148m   -6.2442m   -2.6939m    1.6798m 
    8.30000n   -1.7789m   -6.2312m   -3.7630m  772.9944u 
    8.31000n    1.7571m   -6.2181m   -4.8321m -133.7705u 
    8.32000n    5.2930m   -6.2051m   -5.9012m   -1.0405m 
    8.33000n    8.8290m   -6.1920m   -6.9703m   -1.9473m 
    8.34000n   12.3649m   -6.1790m   -8.0394m   -2.8541m 
    8.35000n   15.9008m   -6.1660m   -9.1085m   -3.7608m 
    8.36000n   19.4368m   -6.1529m  -10.1776m   -4.6676m 
    8.37000n   22.9727m   -6.1399m  -11.2467m   -5.5744m 
    8.38000n   26.5087m   -6.1268m  -12.3158m   -6.4811m 
    8.39000n   30.0446m   -6.1138m  -13.3849m   -7.3879m 
    8.40000n   33.5805m   -6.1007m  -14.4540m   -8.2947m 
    8.41000n   37.1165m   -6.0877m  -15.5231m   -9.2014m 
    8.42000n   40.6524m   -6.0747m  -16.5923m  -10.1082m 
    8.43000n   44.1884m   -6.0616m  -17.6614m  -11.0149m 
    8.44000n   47.7243m   -6.0486m  -18.7305m  -11.9217m 
    8.45000n   51.2603m   -6.0355m  -19.7996m  -12.8285m 
    8.46000n   54.7962m   -6.0225m  -20.8687m  -13.7352m 
    8.47000n   58.3321m   -6.0094m  -21.9378m  -14.6420m 
    8.48000n   61.8681m   -5.9964m  -23.0069m  -15.5488m 
    8.49000n   65.4040m   -5.9834m  -24.0760m  -16.4555m 
    8.50000n   68.9400m   -5.9703m  -25.1451m  -17.3623m 
    8.51000n   72.4759m   -5.9573m  -26.2142m  -18.2691m 
    8.52000n   76.0118m   -5.9442m  -27.2833m  -19.1758m 
    8.53000n   79.5478m   -5.9312m  -28.3524m  -20.0826m 
    8.54000n   83.0837m   -5.9181m  -29.4215m  -20.9894m 
    8.55000n   86.6197m   -5.9051m  -30.4906m  -21.8961m 
    8.56000n   90.1556m   -5.8921m  -31.5597m  -22.8029m 
    8.57000n   93.6916m   -5.8790m  -32.6288m  -23.7097m 
    8.58000n   93.6797m   -5.6790m  -32.4918m  -23.7215m 
    8.59000n   91.0362m   -5.3404m  -31.4602m  -23.0694m 
    8.60000n   88.3927m   -5.0018m  -30.4285m  -22.4173m 
    8.61000n   85.7492m   -4.6631m  -29.3969m  -21.7652m 
    8.62000n   83.1057m   -4.3245m  -28.3652m  -21.1131m 
    8.63000n   80.4621m   -3.9859m  -27.3336m  -20.4611m 
    8.64000n   77.8186m   -3.6472m  -26.3020m  -19.8090m 
    8.65000n   75.1751m   -3.3086m  -25.2703m  -19.1569m 
    8.66000n   72.5316m   -2.9700m  -24.2387m  -18.5048m 
    8.67000n   69.8880m   -2.6313m  -23.2070m  -17.8527m 
    8.68000n   67.2445m   -2.2927m  -22.1754m  -17.2007m 
    8.69000n   64.6010m   -1.9541m  -21.1438m  -16.5486m 
    8.70000n   61.9575m   -1.6154m  -20.1121m  -15.8965m 
    8.71000n   59.3140m   -1.2768m  -19.0805m  -15.2444m 
    8.72000n   56.6704m -938.1827u  -18.0488m  -14.5923m 
    8.73000n   54.0269m -599.5498u  -17.0172m  -13.9403m 
    8.74000n   51.3834m -260.9169u  -15.9856m  -13.2882m 
    8.75000n   48.7399m   77.7160u  -14.9539m  -12.6361m 
    8.76000n   46.0963m  416.3489u  -13.9223m  -11.9840m 
    8.77000n   43.4528m  754.9818u  -12.8906m  -11.3319m 
    8.78000n   40.8093m    1.0936m  -11.8590m  -10.6798m 
    8.79000n   38.1658m    1.4322m  -10.8273m  -10.0278m 
    8.80000n   35.5223m    1.7709m   -9.7957m   -9.3757m 
    8.81000n   32.8787m    2.1095m   -8.7641m   -8.7236m 
    8.82000n   30.2352m    2.4481m   -7.7324m   -8.0715m 
    8.83000n   27.5917m    2.7868m   -6.7008m   -7.4194m 
    8.84000n   24.9482m    3.1254m   -5.6691m   -6.7674m 
    8.85000n   22.3046m    3.4640m   -4.6375m   -6.1153m 
    8.86000n   19.6611m    3.8027m   -3.6059m   -5.4632m 
    8.87000n   17.0176m    4.1413m   -2.5742m   -4.8111m 
    8.88000n   14.3741m    4.4799m   -1.5426m   -4.1590m 
    8.89000n   11.7306m    4.8186m -510.9388u   -3.5070m 
    8.90000n    9.0870m    5.1572m  520.7021u   -2.8549m 
    8.91000n    6.4435m    5.4958m    1.5523m   -2.2028m 
    8.92000n    3.8000m    5.8345m    2.5840m   -1.5507m 
    8.93000n    1.1565m    6.1731m    3.6156m -898.6413u 
    8.94000n   -1.4870m    6.5117m    4.6473m -246.5608u 
    8.95000n   -4.1306m    6.8504m    5.6789m  405.5197u 
    8.96000n   -6.7741m    7.1890m    6.7105m    1.0576m 
    8.97000n   -9.4176m    7.5276m    7.7422m    1.7097m 
    8.98000n  -12.0611m    7.8663m    8.7738m    2.3618m 
    8.99000n  -14.7047m    8.2049m    9.8055m    3.0138m 
    9.00000n  -17.3482m    8.5435m   10.8371m    3.6659m 
    9.01000n  -19.9917m    8.8822m   11.8688m    4.3180m 
    9.02000n  -22.6352m    9.2208m   12.9004m    4.9701m 
    9.03000n  -25.2787m    9.5594m   13.9320m    5.6222m 
    9.04000n  -27.9223m    9.8981m   14.9637m    6.2742m 
    9.05000n  -30.5658m   10.2367m   15.9953m    6.9263m 
    9.06000n  -33.2093m   10.5753m   17.0270m    7.5784m 
    9.07000n  -35.8528m   10.9140m   18.0586m    8.2305m 
    9.08000n  -38.4964m   11.2526m   19.0902m    8.8826m 
    9.09000n  -41.1399m   11.5912m   20.1219m    9.5346m 
    9.10000n  -43.7834m   11.9299m   21.1535m   10.1867m 
    9.11000n  -46.4269m   12.2685m   22.1852m   10.8388m 
    9.12000n  -49.0704m   12.6071m   23.2168m   11.4909m 
    9.13000n  -51.7140m   12.9458m   24.2484m   12.1430m 
    9.14000n  -54.3575m   13.2844m   25.2801m   12.7950m 
    9.15000n  -57.0010m   13.6230m   26.3117m   13.4471m 
    9.16000n  -59.6445m   13.9617m   27.3434m   14.0992m 
    9.17000n  -62.2881m   14.3003m   28.3750m   14.7513m 
    9.18000n  -64.9316m   14.6389m   29.4066m   15.4034m 
    9.19000n  -67.5751m   14.9776m   30.4383m   16.0555m 
    9.20000n  -70.2186m   15.3162m   31.4699m   16.7075m 
    9.21000n  -72.8621m   15.6548m   32.5016m   17.3596m 
    9.22000n  -75.5057m   15.9935m   33.5332m   18.0117m 
    9.23000n  -76.5486m   16.0290m   33.8788m   18.2800m 
    9.24000n  -74.8172m   15.5393m   33.0354m   17.8830m 
    9.25000n  -73.0859m   15.0495m   32.1919m   17.4861m 
    9.26000n  -71.3545m   14.5598m   31.3484m   17.0892m 
    9.27000n  -69.6231m   14.0700m   30.5050m   16.6922m 
    9.28000n  -67.8918m   13.5803m   29.6615m   16.2953m 
    9.29000n  -66.1604m   13.0905m   28.8180m   15.8983m 
    9.30000n  -64.4290m   12.6008m   27.9746m   15.5014m 
    9.31000n  -62.6977m   12.1110m   27.1311m   15.1045m 
    9.32000n  -60.9663m   11.6213m   26.2876m   14.7075m 
    9.33000n  -59.2349m   11.1315m   25.4442m   14.3106m 
    9.34000n  -57.5036m   10.6418m   24.6007m   13.9136m 
    9.35000n  -55.7722m   10.1521m   23.7573m   13.5167m 
    9.36000n  -54.0408m    9.6623m   22.9138m   13.1197m 
    9.37000n  -52.3094m    9.1726m   22.0703m   12.7228m 
    9.38000n  -50.5781m    8.6828m   21.2269m   12.3259m 
    9.39000n  -48.8467m    8.1931m   20.3834m   11.9289m 
    9.40000n  -47.1153m    7.7033m   19.5399m   11.5320m 
    9.41000n  -45.3840m    7.2136m   18.6965m   11.1350m 
    9.42000n  -43.6526m    6.7238m   17.8530m   10.7381m 
    9.43000n  -41.9212m    6.2341m   17.0095m   10.3412m 
    9.44000n  -40.1899m    5.7443m   16.1661m    9.9442m 
    9.45000n  -38.4585m    5.2546m   15.3226m    9.5473m 
    9.46000n  -36.7271m    4.7648m   14.4791m    9.1503m 
    9.47000n  -34.9958m    4.2751m   13.6357m    8.7534m 
    9.48000n  -33.2644m    3.7853m   12.7922m    8.3564m 
    9.49000n  -31.5330m    3.2956m   11.9487m    7.9595m 
    9.50000n  -29.8017m    2.8058m   11.1053m    7.5626m 
    9.51000n  -28.0703m    2.3161m   10.2618m    7.1656m 
    9.52000n  -26.3389m    1.8263m    9.4183m    6.7687m 
    9.53000n  -24.6075m    1.3366m    8.5749m    6.3717m 
    9.54000n  -22.8762m  846.8386u    7.7314m    5.9748m 
    9.55000n  -21.1448m  357.0906u    6.8880m    5.5779m 
    9.56000n  -19.4134m -132.6575u    6.0445m    5.1809m 
    9.57000n  -17.6821m -622.4055u    5.2010m    4.7840m 
    9.58000n  -15.9507m   -1.1122m    4.3576m    4.3870m 
    9.59000n  -14.2193m   -1.6019m    3.5141m    3.9901m 
    9.60000n  -12.4880m   -2.0916m    2.6706m    3.5931m 
    9.61000n  -10.7566m   -2.5814m    1.8272m    3.1962m 
    9.62000n   -9.0252m   -3.0711m  983.6994u    2.7993m 
    9.63000n   -7.2939m   -3.5609m  140.2345u    2.4023m 
    9.64000n   -5.5625m   -4.0506m -703.2304u    2.0054m 
    9.65000n   -3.8311m   -4.5404m   -1.5467m    1.6084m 
    9.66000n   -2.0998m   -5.0301m   -2.3902m    1.2115m 
    9.67000n -368.3875u   -5.5199m   -3.2336m  814.5598u 
    9.68000n    1.3630m   -6.0096m   -4.0771m  417.6183u 
    9.69000n    3.0943m   -6.4994m   -4.9206m   20.6769u 
    9.70000n    4.8257m   -6.9891m   -5.7640m -376.2645u 
    9.71000n    6.5571m   -7.4789m   -6.6075m -773.2060u 
    9.72000n    8.2885m   -7.9686m   -7.4509m   -1.1701m 
    9.73000n   10.0198m   -8.4584m   -8.2944m   -1.5671m 
    9.74000n   11.7512m   -8.9481m   -9.1379m   -1.9640m 
    9.75000n   13.4826m   -9.4379m   -9.9813m   -2.3610m 
    9.76000n   15.2139m   -9.9276m  -10.8248m   -2.7579m 
    9.77000n   16.9453m  -10.4174m  -11.6683m   -3.1549m 
    9.78000n   18.6767m  -10.9071m  -12.5117m   -3.5518m 
    9.79000n   20.4080m  -11.3969m  -13.3552m   -3.9487m 
    9.80000n   22.1394m  -11.8866m  -14.1987m   -4.3457m 
    9.81000n   23.8708m  -12.3764m  -15.0421m   -4.7426m 
    9.82000n   25.6021m  -12.8661m  -15.8856m   -5.1396m 
    9.83000n   27.3335m  -13.3559m  -16.7291m   -5.5365m 
    9.84000n   29.0649m  -13.8456m  -17.5725m   -5.9334m 
    9.85000n   30.7962m  -14.3354m  -18.4160m   -6.3304m 
    9.86000n   32.5276m  -14.8251m  -19.2595m   -6.7273m 
    9.87000n   34.2590m  -15.3148m  -20.1029m   -7.1243m 
    9.88000n   35.9904m  -15.8046m  -20.9464m   -7.5212m 
    9.89000n   37.7217m  -16.2943m  -21.7899m   -7.9182m 
    9.90000n   39.4531m  -16.7841m  -22.6333m   -8.3151m 
    9.91000n   41.1845m  -17.2738m  -23.4768m   -8.7120m 
    9.92000n   42.9158m  -17.7636m  -24.3202m   -9.1090m 
    9.93000n   44.6472m  -18.2533m  -25.1637m   -9.5059m 
    9.94000n   46.3786m  -18.7431m  -26.0072m   -9.9029m 
    9.95000n   48.1099m  -19.2328m  -26.8506m  -10.2998m 
    9.96000n   49.8413m  -19.7226m  -27.6941m  -10.6967m 
    9.97000n   51.5727m  -20.2123m  -28.5376m  -11.0937m 
    9.98000n   53.3040m  -20.7021m  -29.3810m  -11.4906m 
    9.99000n   55.0354m  -21.1918m  -30.2245m  -11.8876m 
   10.00000n   56.7668m  -21.6816m  -31.0680m  -12.2845m 
   10.01000n   58.4981m  -22.1713m  -31.9114m  -12.6814m 
   10.02000n   60.2295m  -22.6611m  -32.7549m  -13.0784m 
   10.03000n   61.9609m  -23.1508m  -33.5984m  -13.4753m 
   10.04000n   62.6752m  -23.2818m  -33.9042m  -13.6491m 
   10.05000n   61.4826m  -22.7403m  -33.2020m  -13.4044m 
   10.06000n   60.2900m  -22.1988m  -32.4998m  -13.1597m 
   10.07000n   59.0974m  -21.6573m  -31.7976m  -12.9151m 
   10.08000n   57.9048m  -21.1159m  -31.0955m  -12.6704m 
   10.09000n   56.7122m  -20.5744m  -30.3933m  -12.4257m 
   10.10000n   55.5197m  -20.0329m  -29.6911m  -12.1810m 
   10.11000n   54.3271m  -19.4914m  -28.9889m  -11.9364m 
   10.12000n   53.1345m  -18.9499m  -28.2867m  -11.6917m 
   10.13000n   51.9419m  -18.4084m  -27.5845m  -11.4470m 
   10.14000n   50.7493m  -17.8669m  -26.8824m  -11.2023m 
   10.15000n   49.5567m  -17.3254m  -26.1802m  -10.9577m 
   10.16000n   48.3641m  -16.7839m  -25.4780m  -10.7130m 
   10.17000n   47.1716m  -16.2424m  -24.7758m  -10.4683m 
   10.18000n   45.9790m  -15.7009m  -24.0736m  -10.2236m 
   10.19000n   44.7864m  -15.1594m  -23.3715m   -9.9790m 
   10.20000n   43.5938m  -14.6179m  -22.6693m   -9.7343m 
   10.21000n   42.4012m  -14.0764m  -21.9671m   -9.4896m 
   10.22000n   41.2086m  -13.5349m  -21.2649m   -9.2449m 
   10.23000n   40.0160m  -12.9934m  -20.5627m   -9.0003m 
   10.24000n   38.8234m  -12.4519m  -19.8605m   -8.7556m 
   10.25000n   37.6309m  -11.9104m  -19.1584m   -8.5109m 
   10.26000n   36.4383m  -11.3689m  -18.4562m   -8.2662m 
   10.27000n   35.2457m  -10.8274m  -17.7540m   -8.0215m 
   10.28000n   34.0531m  -10.2859m  -17.0518m   -7.7769m 
   10.29000n   32.8605m   -9.7444m  -16.3496m   -7.5322m 
   10.30000n   31.6679m   -9.2029m  -15.6475m   -7.2875m 
   10.31000n   30.4753m   -8.6614m  -14.9453m   -7.0428m 
   10.32000n   29.2828m   -8.1199m  -14.2431m   -6.7982m 
   10.33000n   28.0902m   -7.5784m  -13.5409m   -6.5535m 
   10.34000n   26.8976m   -7.0369m  -12.8387m   -6.3088m 
   10.35000n   25.7050m   -6.4954m  -12.1365m   -6.0641m 
   10.36000n   24.5124m   -5.9539m  -11.4344m   -5.8195m 
   10.37000n   23.3198m   -5.4124m  -10.7322m   -5.5748m 
   10.38000n   22.1272m   -4.8709m  -10.0300m   -5.3301m 
   10.39000n   20.9346m   -4.3294m   -9.3278m   -5.0854m 
   10.40000n   19.7421m   -3.7879m   -8.6256m   -4.8408m 
   10.41000n   18.5495m   -3.2464m   -7.9234m   -4.5961m 
   10.42000n   17.3569m   -2.7049m   -7.2213m   -4.3514m 
   10.43000n   16.1643m   -2.1634m   -6.5191m   -4.1067m 
   10.44000n   14.9717m   -1.6219m   -5.8169m   -3.8621m 
   10.45000n   13.7791m   -1.0804m   -5.1147m   -3.6174m 
   10.46000n   12.5865m -538.8631u   -4.4125m   -3.3727m 
   10.47000n   11.3940m    2.6365u   -3.7104m   -3.1280m 
   10.48000n   10.2014m  544.1362u   -3.0082m   -2.8834m 
   10.49000n    9.0088m    1.0856m   -2.3060m   -2.6387m 
   10.50000n    7.8162m    1.6271m   -1.6038m   -2.3940m 
   10.51000n    6.6236m    2.1686m -901.6284u   -2.1493m 
   10.52000n    5.4310m    2.7101m -199.4464u   -1.9047m 
   10.53000n    4.2384m    3.2516m  502.7356u   -1.6600m 
   10.54000n    3.0459m    3.7931m    1.2049m   -1.4153m 
   10.55000n    1.8533m    4.3346m    1.9071m   -1.1706m 
   10.56000n  660.6805u    4.8761m    2.6093m -925.9526u 
   10.57000n -531.9060u    5.4176m    3.3115m -681.2769u 
   10.58000n   -1.7245m    5.9591m    4.0136m -436.6012u 
   10.59000n   -2.9171m    6.5006m    4.7158m -191.9255u 
   10.60000n   -4.1097m    7.0421m    5.4180m   52.7503u 
   10.61000n   -5.3023m    7.5836m    6.1202m  297.4260u 
   10.62000n   -6.4948m    8.1251m    6.8224m  542.1017u 
   10.63000n   -7.6874m    8.6666m    7.5246m  786.7775u 
   10.64000n   -8.8800m    9.2081m    8.2267m    1.0315m 
   10.65000n  -10.0726m    9.7496m    8.9289m    1.2761m 
   10.66000n  -11.2652m   10.2911m    9.6311m    1.5208m 
   10.67000n  -12.4578m   10.8326m   10.3333m    1.7655m 
   10.68000n  -13.6504m   11.3741m   11.0355m    2.0102m 
   10.69000n  -14.8429m   11.9156m   11.7376m    2.2548m 
   10.70000n  -16.0355m   12.4571m   12.4398m    2.4995m 
   10.71000n  -17.2281m   12.9986m   13.1420m    2.7442m 
   10.72000n  -18.4207m   13.5401m   13.8442m    2.9889m 
   10.73000n  -19.6133m   14.0816m   14.5464m    3.2335m 
   10.74000n  -20.8059m   14.6231m   15.2486m    3.4782m 
   10.75000n  -21.9985m   15.1646m   15.9507m    3.7229m 
   10.76000n  -23.1910m   15.7061m   16.6529m    3.9676m 
   10.77000n  -24.3836m   16.2476m   17.3551m    4.2122m 
   10.78000n  -25.5762m   16.7891m   18.0573m    4.4569m 
   10.79000n  -26.7688m   17.3306m   18.7595m    4.7016m 
   10.80000n  -27.9614m   17.8721m   19.4616m    4.9463m 
   10.81000n  -29.1540m   18.4136m   20.1638m    5.1909m 
   10.82000n  -30.3466m   18.9551m   20.8660m    5.4356m 
   10.83000n  -31.5392m   19.4966m   21.5682m    5.6803m 
   10.84000n  -32.7317m   20.0381m   22.2704m    5.9250m 
   10.85000n  -33.9243m   20.5796m   22.9726m    6.1696m 
   10.86000n  -35.1169m   21.1211m   23.6747m    6.4143m 
   10.87000n  -36.3095m   21.6626m   24.3769m    6.6590m 
   10.88000n  -37.5021m   22.2041m   25.0791m    6.9037m 
   10.89000n  -38.6947m   22.7456m   25.7813m    7.1483m 
   10.90000n  -39.8873m   23.2871m   26.4835m    7.3930m 
   10.91000n  -41.0798m   23.8286m   27.1857m    7.6377m 
   10.92000n  -42.2724m   24.3701m   27.8878m    7.8824m 
   10.93000n  -43.4650m   24.9116m   28.5900m    8.1270m 
   10.94000n  -44.6576m   25.4531m   29.2922m    8.3717m 
   10.95000n  -45.8502m   25.9946m   29.9944m    8.6164m 
   10.96000n  -47.0428m   26.5361m   30.6966m    8.8611m 
   10.97000n  -48.2354m   27.0776m   31.3987m    9.1058m 
   10.98000n  -49.4279m   27.6191m   32.1009m    9.3504m 
   10.99000n  -50.6205m   28.1606m   32.8031m    9.5951m 
   11.00000n  -51.8131m   28.7021m   33.5053m    9.8398m 
   11.01000n -585.8833m   18.7263m   28.0839m    4.6100m 
   11.02000n   -1.1200     8.7505m   22.6625m -619.7036u 
   11.03000n   -1.6540    -1.2253m   17.2411m   -5.8494m 
   11.04000n   -2.1881   -11.2011m   11.8197m  -11.0792m 
   11.05000n   -2.7222   -21.1769m    6.3982m  -16.3089m 
   11.06000n   -3.2562   -31.1527m  976.8402u  -21.5387m 
   11.07000n   -3.7903   -41.1285m   -4.4446m  -26.7684m 
   11.08000n   -4.3244   -51.1044m   -9.8660m  -31.9982m 
   11.09000n   -4.8584   -61.0802m  -15.2874m  -37.2279m 
   11.10000n   -5.3925   -71.0560m  -20.7088m  -42.4576m 
   11.11000n   -5.9266   -81.0318m  -26.1302m  -47.6874m 
   11.12000n   -6.4607   -91.0076m  -31.5516m  -52.9171m 
   11.13000n   -6.9947  -100.9834m  -36.9730m  -58.1469m 
   11.14000n   -7.5288  -110.9592m  -42.3944m  -63.3766m 
   11.15000n   -8.0629  -120.9350m  -47.8158m  -68.6063m 
   11.16000n   -8.5969  -130.9108m  -53.2372m  -73.8361m 
   11.17000n   -9.1310  -140.8866m  -58.6587m  -79.0658m 
   11.18000n   -9.6651  -150.8624m  -64.0801m  -84.2956m 
   11.19000n  -10.1991  -160.8382m  -69.5015m  -89.5253m 
   11.20000n  -10.7332  -170.8141m  -74.9229m  -94.7551m 
   11.21000n  -11.2673  -180.7899m  -80.3443m  -99.9848m 
   11.22000n  -11.8014  -190.7657m  -85.7657m -105.2145m 
   11.23000n  -12.3354  -200.7415m  -91.1871m -110.4443m 
   11.24000n  -12.8695  -210.7173m  -96.6085m -115.6740m 
   11.25000n  -13.4036  -220.6931m -102.0299m -120.9038m 
   11.26000n  -13.9871  -226.8349m -102.4958m -121.0455m 
   11.27000n  -14.5707  -232.9768m -102.9617m -121.1873m 
   11.28000n  -15.1542  -239.1186m -103.4275m -121.3291m 
   11.29000n  -15.7378  -245.2604m -103.8934m -121.4709m 
   11.30000n  -16.3213  -251.4022m -104.3593m -121.6127m 
   11.31000n  -16.9049  -257.5441m -104.8251m -121.7545m 
   11.32000n  -17.5049  -262.6047m -104.8684m -120.6270m 
   11.33000n  -18.1228  -266.4987m -104.4558m -118.1298m 
   11.34000n  -18.7407  -270.3926m -104.0431m -115.6326m 
   11.35000n  -19.3586  -274.2866m -103.6304m -113.1353m 
   11.36000n  -19.9765  -278.1805m -103.2178m -110.6381m 
   11.37000n  -20.5944  -282.0745m -102.8051m -108.1409m 
   11.38000n  -21.2123  -285.9684m -102.3924m -105.6437m 
   11.39000n  -21.8302  -289.8624m -101.9798m -103.1465m 
   11.40000n  -22.4480  -293.7563m -101.5671m -100.6493m 
   11.41000n  -23.0659  -297.6503m -101.1544m  -98.1521m 
   11.42000n  -23.6838  -301.5442m -100.7417m  -95.6548m 
   11.43000n  -24.3017  -305.4382m -100.3291m  -93.1576m 
   11.44000n  -24.9196  -309.3321m  -99.9164m  -90.6604m 
   11.45000n  -25.5375  -313.2261m  -99.5037m  -88.1632m 
   11.46000n  -26.1554  -317.1200m  -99.0911m  -85.6660m 
   11.47000n  -26.7733  -321.0140m  -98.6784m  -83.1688m 
   11.48000n  -27.3912  -324.9079m  -98.2657m  -80.6715m 
   11.49000n  -28.0090  -328.8019m  -97.8531m  -78.1743m 
   11.50000n  -28.6269  -332.6958m  -97.4404m  -75.6771m 
   11.51000n  -28.8525  -315.0957m  -83.2107m  -55.6270m 
   11.52000n  -29.0780  -297.4955m  -68.9809m  -35.5769m 
   11.53000n  -29.3035  -279.8953m  -54.7511m  -15.5268m 
   11.54000n  -29.5291  -262.2951m  -40.5214m    4.5233m 
   11.55000n  -29.7546  -244.6949m  -26.2916m   24.5734m 
   11.56000n  -29.9801  -227.0947m  -12.0619m   44.6235m 
   11.57000n  -30.1524  -212.6164m   -3.2093m   58.7940m 
   11.58000n  -30.2462  -202.7460m   -2.2938m   64.2858m 
   11.59000n  -30.3399  -192.8757m   -1.3783m   69.7776m 
   11.60000n  -30.4336  -183.0053m -462.8184u   75.2694m 
   11.61000n  -30.5274  -173.1349m  452.6675u   80.7612m 
   11.62000n  -30.6165  -163.2012m    1.2370m   85.7863m 
   11.63000n  -30.5639  -151.3060m   -2.0347m   76.3814m 
   11.64000n  -30.5114  -139.4109m   -5.3064m   66.9766m 
   11.65000n  -30.4588  -127.5158m   -8.5781m   57.5717m 
   11.66000n  -30.4063  -115.6206m  -11.8498m   48.1669m 
   11.67000n  -30.3537  -103.7255m  -15.1215m   38.7620m 
   11.68000n  -30.3011   -91.8304m  -18.3931m   29.3572m 
   11.69000n  -30.2486   -79.9352m  -21.6648m   19.9523m 
   11.70000n  -30.1960   -68.0401m  -24.9365m   10.5475m 
   11.71000n  -30.1435   -56.1450m  -28.2082m    1.1426m 
   11.72000n  -30.0909   -44.2498m  -31.4799m   -8.2622m 
   11.73000n  -30.0383   -32.3547m  -34.7516m  -17.6671m 
   11.74000n  -29.9858   -20.4596m  -38.0232m  -27.0719m 
   11.75000n  -29.9332    -8.5644m  -41.2949m  -36.4768m 
   11.76000n  -29.8807     3.3307m  -44.5666m  -45.8816m 
   11.77000n  -29.8281    15.2258m  -47.8383m  -55.2865m 
   11.78000n  -29.7755    27.1210m  -51.1100m  -64.6913m 
   11.79000n  -29.7230    39.0161m  -54.3817m  -74.0962m 
   11.80000n  -29.7289    41.0035m  -50.1958m  -71.4336m 
   11.81000n  -29.7459    41.0929m  -44.5813m  -66.4594m 
   11.82000n  -29.7630    41.1823m  -38.9669m  -61.4851m 
   11.83000n  -29.7801    41.2717m  -33.3524m  -56.5109m 
   11.84000n  -29.7971    41.3610m  -27.7379m  -51.5366m 
   11.85000n  -29.8142    41.4504m  -22.1234m  -46.5623m 
   11.86000n  -29.8312    41.5398m  -16.5089m  -41.5881m 
   11.87000n  -29.8483    41.6292m  -10.8945m  -36.6138m 
   11.88000n  -29.8654    41.7186m   -5.2800m  -31.6396m 
   11.89000n  -29.8824    41.8080m  334.4970u  -26.6653m 
   11.90000n  -29.8995    41.8974m    5.9490m  -21.6911m 
   11.91000n  -29.9166    41.9868m   11.5635m  -16.7168m 
   11.92000n  -29.9336    42.0762m   17.1779m  -11.7425m 
   11.93000n  -29.9507    42.1655m   22.7924m   -6.7683m 
   11.94000n  -29.9678    42.2549m   28.4069m   -1.7940m 
   11.95000n  -29.9848    42.3443m   34.0214m    3.1802m 
   11.96000n  -30.0019    42.4337m   39.6358m    8.1545m 
   11.97000n  -30.0190    42.5231m   45.2503m   13.1287m 
   11.98000n  -30.0360    42.6125m   50.8648m   18.1030m 
   11.99000n  -30.0531    42.7019m   56.4793m   23.0772m 
   12.00000n  -30.0608    37.2720m   54.4092m   24.7138m 
   12.01000n  -30.0645    29.4401m   48.9947m   24.8979m 
   12.02000n  -30.0682    21.6081m   43.5801m   25.0819m 
   12.03000n  -30.0719    13.7762m   38.1656m   25.2659m 
   12.04000n  -30.0756     5.9442m   32.7511m   25.4499m 
   12.05000n  -30.0793    -1.8877m   27.3365m   25.6339m 
   12.06000n  -30.0830    -9.7197m   21.9220m   25.8179m 
   12.07000n  -30.0867   -17.5516m   16.5075m   26.0019m 
   12.08000n  -30.0904   -25.3836m   11.0929m   26.1859m 
   12.09000n  -30.0941   -33.2155m    5.6784m   26.3699m 
   12.10000n  -30.0978   -41.0475m  263.8745u   26.5539m 
   12.11000n  -30.1015   -48.8794m   -5.1507m   26.7379m 
   12.12000n  -30.1052   -56.7113m  -10.5652m   26.9219m 
   12.13000n  -30.1089   -64.5433m  -15.9797m   27.1059m 
   12.14000n  -30.1126   -72.3752m  -21.3942m   27.2899m 
   12.15000n  -30.1163   -80.2072m  -26.8088m   27.4740m 
   12.16000n  -30.1200   -88.0391m  -32.2233m   27.6580m 
   12.17000n  -30.1237   -95.8711m  -37.6378m   27.8420m 
   12.18000n  -30.1207   -96.4680m  -39.3000m   26.7367m 
   12.19000n  -30.1114   -90.2321m  -37.4182m   24.4139m 
   12.20000n  -30.1020   -83.9961m  -35.5365m   22.0911m 
   12.21000n  -30.0927   -77.7602m  -33.6547m   19.7682m 
   12.22000n  -30.0834   -71.5242m  -31.7730m   17.4454m 
   12.23000n  -30.0741   -65.2882m  -29.8912m   15.1226m 
   12.24000n  -30.0648   -59.0523m  -28.0095m   12.7997m 
   12.25000n  -30.0554   -52.8163m  -26.1277m   10.4769m 
   12.26000n  -30.0461   -46.5804m  -24.2460m    8.1541m 
[...]
   26.92000n   -3.4872m   -4.6766m   -2.8420m   25.4987m 
   26.93000n   -3.2887m   -4.3384m   -2.5601m   23.9811m 
   26.94000n   -3.0902m   -4.0003m   -2.2782m   22.4635m 
   26.95000n   -2.8917m   -3.6621m   -1.9963m   20.9460m 
   26.96000n   -2.6932m   -3.3240m   -1.7144m   19.4284m 
   26.97000n   -2.4947m   -2.9859m   -1.4325m   17.9108m 
   26.98000n   -2.2962m   -2.6477m   -1.1506m   16.3933m 
   26.99000n   -2.0977m   -2.3096m -868.7000u   14.8757m 
   27.00000n   -1.8992m   -1.9714m -586.8061u   13.3581m 
   27.01000n   -1.7007m   -1.6333m -304.9122u   11.8405m 
   27.02000n   -1.5022m   -1.2952m  -23.0183u   10.3230m 
   27.03000n   -1.3037m -957.0139u  258.8756u    8.8054m 
   27.04000n   -1.1052m -618.8739u  540.7695u    7.2878m 
   27.05000n -906.6884u -280.7338u  822.6634u    5.7703m 
   27.06000n -708.1873u   57.4062u    1.1046m    4.2527m 
   27.07000n -509.6862u  395.5463u    1.3865m    2.7351m 
   27.08000n -311.1851u  733.6863u    1.6683m    1.2175m 
   27.09000n -112.6840u    1.0718m    1.9502m -300.0232u 
   27.10000n   85.8171u    1.4100m    2.2321m   -1.8176m 
   27.11000n  284.3182u    1.7481m    2.5140m   -3.3352m 
   27.12000n  482.8193u    2.0862m    2.7959m   -4.8527m 
   27.13000n  681.3205u    2.4244m    3.0778m   -6.3703m 
   27.14000n  879.8216u    2.7625m    3.3597m   -7.8879m 
   27.15000n    1.0783m    3.1007m    3.6416m   -9.4055m 
   27.16000n    1.2768m    3.4388m    3.9235m  -10.9230m 
   27.17000n    1.4753m    3.7769m    4.2054m  -12.4406m 
   27.18000n    1.6738m    4.1151m    4.4873m  -13.9582m 
   27.19000n    1.8723m    4.4532m    4.7692m  -15.4757m 
   27.20000n    2.0708m    4.7914m    5.0511m  -16.9933m 
   27.21000n    2.2693m    5.1295m    5.3330m  -18.5109m 
   27.22000n    2.4678m    5.4676m    5.6149m  -20.0285m 
   27.23000n    2.6663m    5.8058m    5.8968m  -21.5460m 
   27.24000n    2.8648m    6.1439m    6.1786m  -23.0636m 
   27.25000n    3.0633m    6.4821m    6.4605m  -24.5812m 
   27.26000n    3.2618m    6.8202m    6.7424m  -26.0987m 
   27.27000n    3.4603m    7.1583m    7.0243m  -27.6163m 
   27.28000n    3.6588m    7.4965m    7.3062m  -29.1339m 
   27.29000n    3.8573m    7.8346m    7.5881m  -30.6515m 
   27.30000n    4.0558m    8.1728m    7.8700m  -32.1690m 
   27.31000n    4.2543m    8.5109m    8.1519m  -33.6866m 
   27.32000n    4.1849m    8.3207m    7.9302m  -33.0734m 
   27.33000n    4.0519m    8.0055m    7.5891m  -31.9555m 
   27.34000n    3.9190m    7.6902m    7.2481m  -30.8377m 
   27.35000n    3.7861m    7.3749m    6.9071m  -29.7199m 
   27.36000n    3.6532m    7.0596m    6.5661m  -28.6021m 
   27.37000n    3.5203m    6.7444m    6.2251m  -27.4842m 
   27.38000n    3.3873m    6.4291m    5.8840m  -26.3664m 
   27.39000n    3.2544m    6.1138m    5.5430m  -25.2486m 
   27.40000n    3.1215m    5.7985m    5.2020m  -24.1308m 
   27.41000n    2.9886m    5.4833m    4.8610m  -23.0130m 
   27.42000n    2.8556m    5.1680m    4.5200m  -21.8951m 
   27.43000n    2.7227m    4.8527m    4.1789m  -20.7773m 
   27.44000n    2.5898m    4.5374m    3.8379m  -19.6595m 
   27.45000n    2.4569m    4.2222m    3.4969m  -18.5417m 
   27.46000n    2.3239m    3.9069m    3.1559m  -17.4238m 
   27.47000n    2.1910m    3.5916m    2.8149m  -16.3060m 
   27.48000n    2.0581m    3.2763m    2.4739m  -15.1882m 
   27.49000n    1.9252m    2.9611m    2.1328m  -14.0704m 
   27.50000n    1.7922m    2.6458m    1.7918m  -12.9526m 
   27.51000n    1.6593m    2.3305m    1.4508m  -11.8347m 
   27.52000n    1.5264m    2.0152m    1.1098m  -10.7169m 
   27.53000n    1.3935m    1.7000m  768.7658u   -9.5991m 
   27.54000n    1.2605m    1.3847m  427.7475u   -8.4813m 
   27.55000n    1.1276m    1.0694m   86.7292u   -7.3635m 
   27.56000n  994.7016u  754.1363u -254.2891u   -6.2456m 
   27.57000n  861.7779u  438.8613u -595.3074u   -5.1278m 
   27.58000n  728.8541u  123.5863u -936.3257u   -4.0100m 
   27.59000n  595.9303u -191.6887u   -1.2773m   -2.8922m 
   27.60000n  463.0066u -506.9637u   -1.6184m   -1.7743m 
   27.61000n  330.0828u -822.2387u   -1.9594m -656.5241u 
   27.62000n  197.1591u   -1.1375m   -2.3004m  461.2975u 
   27.63000n   64.2353u   -1.4528m   -2.6414m    1.5791m 
   27.64000n  -68.6884u   -1.7681m   -2.9824m    2.6969m 
   27.65000n -201.6122u   -2.0833m   -3.3235m    3.8148m 
   27.66000n -334.5360u   -2.3986m   -3.6645m    4.9326m 
   27.67000n -467.4597u   -2.7139m   -4.0055m    6.0504m 
   27.68000n -600.3835u   -3.0292m   -4.3465m    7.1682m 
   27.69000n -733.3072u   -3.3444m   -4.6875m    8.2860m 
   27.70000n -866.2310u   -3.6597m   -5.0285m    9.4039m 
   27.71000n -999.1548u   -3.9750m   -5.3696m   10.5217m 
   27.72000n   -1.1321m   -4.2903m   -5.7106m   11.6395m 
   27.73000n   -1.2650m   -4.6055m   -6.0516m   12.7573m 
   27.74000n   -1.3979m   -4.9208m   -6.3926m   13.8752m 
   27.75000n   -1.5308m   -5.2361m   -6.7336m   14.9930m 
   27.76000n   -1.6638m   -5.5514m   -7.0747m   16.1108m 
   27.77000n   -1.7967m   -5.8666m   -7.4157m   17.2286m 
   27.78000n   -1.9296m   -6.1819m   -7.7567m   18.3464m 
   27.79000n   -2.0625m   -6.4972m   -8.0977m   19.4643m 
   27.80000n   -2.1955m   -6.8125m   -8.4387m   20.5821m 
   27.81000n   -2.3284m   -7.1277m   -8.7797m   21.6999m 
   27.82000n   -2.4613m   -7.4430m   -9.1208m   22.8177m 
   27.83000n   -2.5942m   -7.7583m   -9.4618m   23.9356m 
   27.84000n   -2.7272m   -8.0736m   -9.8028m   25.0534m 
   27.85000n   -2.7996m   -8.2172m   -9.9386m   25.6212m 
   27.86000n   -2.7294m   -7.9565m   -9.5913m   24.8941m 
   27.87000n   -2.6593m   -7.6958m   -9.2440m   24.1669m 
   27.88000n   -2.5891m   -7.4351m   -8.8967m   23.4397m 
   27.89000n   -2.5190m   -7.1744m   -8.5494m   22.7126m 
   27.90000n   -2.4489m   -6.9137m   -8.2021m   21.9854m 
   27.91000n   -2.3787m   -6.6531m   -7.8547m   21.2583m 
   27.92000n   -2.3086m   -6.3924m   -7.5074m   20.5311m 
   27.93000n   -2.2385m   -6.1317m   -7.1601m   19.8039m 
   27.94000n   -2.1683m   -5.8710m   -6.8128m   19.0768m 
   27.95000n   -2.0982m   -5.6103m   -6.4655m   18.3496m 
   27.96000n   -2.0281m   -5.3497m   -6.1182m   17.6224m 
   27.97000n   -1.9579m   -5.0890m   -5.7708m   16.8953m 
   27.98000n   -1.8878m   -4.8283m   -5.4235m   16.1681m 
   27.99000n   -1.8177m   -4.5676m   -5.0762m   15.4409m 
   28.00000n   -1.7475m   -4.3069m   -4.7289m   14.7138m 
   28.01000n   -1.6774m   -4.0462m   -4.3816m   13.9866m 
   28.02000n   -1.6072m   -3.7856m   -4.0343m   13.2595m 
   28.03000n   -1.5371m   -3.5249m   -3.6870m   12.5323m 
   28.04000n   -1.4670m   -3.2642m   -3.3396m   11.8051m 
   28.05000n   -1.3968m   -3.0035m   -2.9923m   11.0780m 
   28.06000n   -1.3267m   -2.7428m   -2.6450m   10.3508m 
   28.07000n   -1.2566m   -2.4822m   -2.2977m    9.6236m 
   28.08000n   -1.1864m   -2.2215m   -1.9504m    8.8965m 
   28.09000n   -1.1163m   -1.9608m   -1.6031m    8.1693m 
   28.10000n   -1.0462m   -1.7001m   -1.2557m    7.4422m 
   28.11000n -976.0172u   -1.4394m -908.4270u    6.7150m 
   28.12000n -905.8810u   -1.1788m -561.1112u    5.9878m 
   28.13000n -835.7448u -918.0687u -213.7953u    5.2607m 
   28.14000n -765.6086u -657.3870u  133.5205u    4.5335m 
   28.15000n -695.4724u -396.7053u  480.8364u    3.8063m 
   28.16000n -625.3362u -136.0237u  828.1522u    3.0792m 
   28.17000n -555.2000u  124.6580u    1.1755m    2.3520m 
   28.18000n -485.0638u  385.3397u    1.5228m    1.6248m 
   28.19000n -414.9276u  646.0214u    1.8701m  897.6793u 
   28.20000n -344.7914u  906.7031u    2.2174m  170.5158u 
   28.21000n -274.6551u    1.1674m    2.5647m -556.6476u 
   28.22000n -204.5189u    1.4281m    2.9120m   -1.2838m 
   28.23000n -134.3827u    1.6887m    3.2594m   -2.0110m 
   28.24000n  -64.2465u    1.9494m    3.6067m   -2.7381m 
   28.25000n    5.8897u    2.2101m    3.9540m   -3.4653m 
   28.26000n   76.0259u    2.4708m    4.3013m   -4.1925m 
   28.27000n  146.1621u    2.7315m    4.6486m   -4.9196m 
   28.28000n  216.2983u    2.9922m    4.9959m   -5.6468m 
   28.29000n  286.4345u    3.2528m    5.3433m   -6.3740m 
   28.30000n  356.5707u    3.5135m    5.6906m   -7.1011m 
   28.31000n  426.7069u    3.7742m    6.0379m   -7.8283m 
   28.32000n  496.8431u    4.0349m    6.3852m   -8.5554m 
   28.33000n  566.9793u    4.2956m    6.7325m   -9.2826m 
   28.34000n  637.1155u    4.5562m    7.0798m  -10.0098m 
   28.35000n  707.2518u    4.8169m    7.4272m  -10.7369m 
   28.36000n  777.3880u    5.0776m    7.7745m  -11.4641m 
   28.37000n  847.5242u    5.3383m    8.1218m  -12.1913m 
   28.38000n  917.6604u    5.5990m    8.4691m  -12.9184m 
   28.39000n  987.7966u    5.8597m    8.8164m  -13.6456m 
   28.40000n    1.0579m    6.1203m    9.1637m  -14.3728m 
   28.41000n    1.1281m    6.3810m    9.5110m  -15.0999m 
   28.42000n    1.1982m    6.6417m    9.8584m  -15.8271m 
   28.43000n    1.2683m    6.9024m   10.2057m  -16.5542m 
   28.44000n    1.3385m    7.1631m   10.5530m  -17.2814m 
   28.45000n    1.4086m    7.4237m   10.9003m  -18.0086m 
   28.46000n    1.4788m    7.6844m   11.2476m  -18.7357m 
   28.47000n    1.4566m    7.5005m   10.9543m  -18.3411m 
   28.48000n    1.4313m    7.3012m   10.6389m  -17.9077m 
   28.49000n    1.4059m    7.1019m   10.3234m  -17.4743m 
   28.50000n    1.3806m    6.9026m   10.0080m  -17.0408m 
   28.51000n    1.3552m    6.7033m    9.6925m  -16.6074m 
   28.52000n    1.3299m    6.5040m    9.3770m  -16.1740m 
   28.53000n    1.3046m    6.3047m    9.0616m  -15.7406m 
   28.54000n    1.2792m    6.1054m    8.7461m  -15.3071m 
   28.55000n    1.2539m    5.9061m    8.4307m  -14.8737m 
   28.56000n    1.2286m    5.7069m    8.1152m  -14.4403m 
   28.57000n    1.2032m    5.5076m    7.7998m  -14.0069m 
   28.58000n    1.1779m    5.3083m    7.4843m  -13.5734m 
   28.59000n    1.1525m    5.1090m    7.1688m  -13.1400m 
   28.60000n    1.1272m    4.9097m    6.8534m  -12.7066m 
   28.61000n    1.1019m    4.7104m    6.5379m  -12.2732m 
   28.62000n    1.0765m    4.5111m    6.2225m  -11.8397m 
   28.63000n    1.0512m    4.3118m    5.9070m  -11.4063m 
   28.64000n    1.0258m    4.1125m    5.5916m  -10.9729m 
   28.65000n    1.0005m    3.9132m    5.2761m  -10.5395m 
   28.66000n  975.1639u    3.7139m    4.9606m  -10.1060m 
   28.67000n  949.8249u    3.5146m    4.6452m   -9.6726m 
   28.68000n  924.4859u    3.3153m    4.3297m   -9.2392m 
   28.69000n  899.1470u    3.1160m    4.0143m   -8.8057m 
   28.70000n  873.8080u    2.9167m    3.6988m   -8.3723m 
   28.71000n  848.4690u    2.7174m    3.3833m   -7.9389m 
   28.72000n  823.1301u    2.5181m    3.0679m   -7.5055m 
   28.73000n  797.7911u    2.3188m    2.7524m   -7.0720m 
   28.74000n  772.4521u    2.1195m    2.4370m   -6.6386m 
   28.75000n  747.1131u    1.9202m    2.1215m   -6.2052m 
   28.76000n  721.7742u    1.7209m    1.8061m   -5.7718m 
   28.77000n  696.4352u    1.5216m    1.4906m   -5.3383m 
   28.78000n  671.0962u    1.3223m    1.1751m   -4.9049m 
   28.79000n  645.7573u    1.1230m  859.6865u   -4.4715m 
   28.80000n  620.4183u  923.7484u  544.2287u   -4.0381m 
   28.81000n  595.0793u  724.4524u  228.7709u   -3.6046m 
   28.82000n  569.7404u  525.1564u  -86.6870u   -3.1712m 
   28.83000n  544.4014u  325.8605u -402.1448u   -2.7378m 
   28.84000n  519.0624u  126.5645u -717.6026u   -2.3044m 
   28.85000n  493.7235u  -72.7314u   -1.0331m   -1.8709m 
   28.86000n  468.3845u -272.0274u   -1.3485m   -1.4375m 
   28.87000n  443.0455u -471.3233u   -1.6640m   -1.0041m 
   28.88000n  417.7065u -670.6193u   -1.9794m -570.6520u 
   28.89000n  392.3676u -869.9153u   -2.2949m -137.2259u 
   28.90000n  367.0286u   -1.0692m   -2.6103m  296.2003u 
   28.91000n  341.6896u   -1.2685m   -2.9258m  729.6264u 
   28.92000n  316.3507u   -1.4678m   -3.2413m    1.1631m 
   28.93000n  291.0117u   -1.6671m   -3.5567m    1.5965m 
   28.94000n  265.6727u   -1.8664m   -3.8722m    2.0299m 
   28.95000n  240.3338u   -2.0657m   -4.1876m    2.4633m 
   28.96000n  214.9948u   -2.2650m   -4.5031m    2.8968m 
   28.97000n  189.6558u   -2.4643m   -4.8186m    3.3302m 
   28.98000n  164.3169u   -2.6636m   -5.1340m    3.7636m 
   28.99000n  138.9779u   -2.8629m   -5.4495m    4.1970m 
   29.00000n  113.6389u   -3.0622m   -5.7649m    4.6305m 
   29.01000n   88.2999u   -3.2615m   -6.0804m    5.0639m 
   29.02000n   62.9610u   -3.4608m   -6.3958m    5.4973m 
   29.03000n   37.6220u   -3.6601m   -6.7113m    5.9307m 
   29.04000n   12.2830u   -3.8594m   -7.0268m    6.3642m 
   29.05000n  -13.0559u   -4.0587m   -7.3422m    6.7976m 
   29.06000n  -38.3949u   -4.2579m   -7.6577m    7.2310m 
   29.07000n  -63.7339u   -4.4572m   -7.9731m    7.6644m 
   29.08000n  -89.0728u   -4.6565m   -8.2886m    8.0979m 
   29.09000n -114.4118u   -4.8558m   -8.6040m    8.5313m 
   29.10000n -139.7508u   -5.0551m   -8.9195m    8.9647m 
   29.11000n -165.0897u   -5.2544m   -9.2350m    9.3981m 
   29.12000n -190.4287u   -5.4537m   -9.5504m    9.8316m 
   29.13000n -215.7677u   -5.6530m   -9.8659m   10.2650m 
   29.14000n -241.1067u   -5.8523m  -10.1813m   10.6984m 
   29.15000n -266.4456u   -6.0516m  -10.4968m   11.1319m 
   29.16000n -291.7846u   -6.2509m  -10.8123m   11.5653m 
   29.17000n -317.1236u   -6.4502m  -11.1277m   11.9987m 
   29.18000n -342.4625u   -6.6495m  -11.4432m   12.4321m 
   29.19000n -367.8015u   -6.8488m  -11.7586m   12.8656m 
   29.20000n -382.8043u   -6.8852m  -11.7969m   12.9844m 
   29.21000n -385.1763u   -6.7226m  -11.4963m   12.7188m 
   29.22000n -387.5483u   -6.5600m  -11.1958m   12.4532m 
   29.23000n -389.9204u   -6.3973m  -10.8953m   12.1876m 
   29.24000n -392.2924u   -6.2347m  -10.5948m   11.9220m 
   29.25000n -394.6644u   -6.0721m  -10.2942m   11.6564m 
   29.26000n -397.0364u   -5.9095m   -9.9937m   11.3908m 
   29.27000n -399.4084u   -5.7468m   -9.6932m   11.1252m 
   29.28000n -401.7804u   -5.5842m   -9.3927m   10.8596m 
   29.29000n -404.1525u   -5.4216m   -9.0921m   10.5940m 
   29.30000n -406.5245u   -5.2590m   -8.7916m   10.3284m 
   29.31000n -408.8965u   -5.0963m   -8.4911m   10.0628m 
   29.32000n -411.2685u   -4.9337m   -8.1905m    9.7972m 
   29.33000n -413.6405u   -4.7711m   -7.8900m    9.5316m 
   29.34000n -416.0126u   -4.6085m   -7.5895m    9.2660m 
   29.35000n -418.3846u   -4.4458m   -7.2890m    9.0004m 
   29.36000n -420.7566u   -4.2832m   -6.9884m    8.7348m 
   29.37000n -423.1286u   -4.1206m   -6.6879m    8.4692m 
   29.38000n -425.5006u   -3.9580m   -6.3874m    8.2036m 
   29.39000n -427.8726u   -3.7953m   -6.0869m    7.9380m 
   29.40000n -430.2447u   -3.6327m   -5.7863m    7.6724m 
   29.41000n -432.6167u   -3.4701m   -5.4858m    7.4068m 
   29.42000n -434.9887u   -3.3075m   -5.1853m    7.1412m 
   29.43000n -437.3607u   -3.1448m   -4.8848m    6.8756m 
   29.44000n -439.7327u   -2.9822m   -4.5842m    6.6100m 
   29.45000n -442.1048u   -2.8196m   -4.2837m    6.3444m 
   29.46000n -444.4768u   -2.6570m   -3.9832m    6.0788m 
   29.47000n -446.8488u   -2.4943m   -3.6827m    5.8132m 
   29.48000n -449.2208u   -2.3317m   -3.3821m    5.5476m 
   29.49000n -451.5928u   -2.1691m   -3.0816m    5.2820m 
   29.50000n -453.9648u   -2.0065m   -2.7811m    5.0165m 
   29.51000n -456.3369u   -1.8438m   -2.4805m    4.7509m 
   29.52000n -458.7089u   -1.6812m   -2.1800m    4.4853m 
   29.53000n -461.0809u   -1.5186m   -1.8795m    4.2197m 
   29.54000n -463.4529u   -1.3560m   -1.5790m    3.9541m 
   29.55000n -465.8249u   -1.1934m   -1.2784m    3.6885m 
   29.56000n -468.1969u   -1.0307m -977.9145u    3.4229m 
   29.57000n -470.5690u -868.1013u -677.3881u    3.1573m 
   29.58000n -472.9410u -705.4768u -376.8618u    2.8917m 
   29.59000n -475.3130u -542.8523u  -76.3354u    2.6261m 
   29.60000n -477.6850u -380.2277u  224.1909u    2.3605m 
   29.61000n -480.0570u -217.6032u  524.7173u    2.0949m 
   29.62000n -482.4291u  -54.9786u  825.2437u    1.8293m 
   29.63000n -484.8011u  107.6459u    1.1258m    1.5637m 
   29.64000n -487.1731u  270.2705u    1.4263m    1.2981m 
   29.65000n -489.5451u  432.8950u    1.7268m    1.0325m 
   29.66000n -491.9171u  595.5195u    2.0273m  766.8817u 
   29.67000n -494.2891u  758.1441u    2.3279m  501.2836u 
   29.68000n -496.6612u  920.7686u    2.6284m  235.6855u 
   29.69000n -499.0332u    1.0834m    2.9289m  -29.9125u 
   29.70000n -501.4052u    1.2460m    3.2295m -295.5106u 
   29.71000n -503.7772u    1.4086m    3.5300m -561.1086u 
   29.72000n -506.1492u    1.5713m    3.8305m -826.7067u 
   29.73000n -508.5213u    1.7339m    4.1310m   -1.0923m 
   29.74000n -510.8933u    1.8965m    4.4316m   -1.3579m 
   29.75000n -513.2653u    2.0591m    4.7321m   -1.6235m 
   29.76000n -515.6373u    2.2218m    5.0326m   -1.8891m 
   29.77000n -518.0093u    2.3844m    5.3331m   -2.1547m 
   29.78000n -520.3813u    2.5470m    5.6337m   -2.4203m 
   29.79000n -522.7534u    2.7096m    5.9342m   -2.6859m 
   29.80000n -525.1254u    2.8723m    6.2347m   -2.9515m 
   29.81000n -527.4974u    3.0349m    6.5352m   -3.2171m 
   29.82000n -529.8694u    3.1975m    6.8358m   -3.4827m 
   29.83000n -532.2414u    3.3601m    7.1363m   -3.7483m 
   29.84000n -534.6134u    3.5228m    7.4368m   -4.0139m 
   29.85000n -536.9855u    3.6854m    7.7373m   -4.2795m 
   29.86000n -539.3575u    3.8480m    8.0379m   -4.5451m 
   29.87000n -541.7295u    4.0106m    8.3384m   -4.8107m 
   29.88000n -544.1015u    4.1733m    8.6389m   -5.0763m 
   29.89000n -546.4735u    4.3359m    8.9395m   -5.3419m 
   29.90000n -548.8456u    4.4985m    9.2400m   -5.6075m 
   29.91000n -551.2176u    4.6611m    9.5405m   -5.8731m 
   29.92000n -553.5896u    4.8238m    9.8410m   -6.1387m 
   29.93000n -555.9616u    4.9864m   10.1416m   -6.4043m 
   29.94000n -558.3336u    5.1490m   10.4421m   -6.6699m 
   29.95000n -560.7056u    5.3116m   10.7426m   -6.9355m 
   29.96000n -563.0777u    5.4743m   11.0431m   -7.2011m 
   29.97000n -565.4497u    5.6369m   11.3437m   -7.4667m 
   29.98000n -567.8217u    5.7995m   11.6442m   -7.7323m 
   29.99000n -570.1937u    5.9621m   11.9447m   -7.9979m 
   30.00000n -572.5657u    6.1248m   12.2452m   -8.2635m 
y

          ***** job concluded
 ******  
 *a bus interconnect circuit with 10 bus line 8 segment.

 ****** job statistics summary tnom=  25.000 temp=  25.000 ******

  ******  HSPICE Threads Information  ******

  Command Line Threads Count :     1
  Available CPU Count        :     8
  Actual Threads Count       :     1


  ******  Circuit Statistics  ******
  # nodes       =     171 # elements   =     945
  # resistors   =      91 # capacitors =     413 # inductors   =      80
  # mutual_inds =     360 # vccs       =       0 # vcvs        =       0
  # cccs        =       0 # ccvs       =       0 # volt_srcs   =       0
  # curr_srcs   =       1 # diodes     =       0 # bjts        =       0
  # jfets       =       0 # mosfets    =       0 # U elements  =       0
  # T elements  =       0 # W elements =       0 # B elements  =       0
  # S elements  =       0 # P elements =       0 # va device   =       0
  # vector_srcs =       0 # N elements =       0


  ******  Runtime Statistics (seconds)  ******

  analysis           time    # points   tot. iter  conv.iter
  op point           0.11           1           4
  transient          0.02        3001         208         104 rev=         6
  readin             0.28
  errchk             0.01
  setup              0.00
  output             0.00


           peak memory used         71.95 megabytes
           total cpu time            0.87 seconds
           total elapsed time        2.09 seconds
           job started at     18:09:47 12/06/2022
           job ended   at     18:09:49 12/06/2022
           job total runtime         2.09 seconds


  lic: Release hspice token(s) 
 lic: total license checkout elapse time:        1.06(s)
