 ****** HSPICE -- P-2019.06-SP1-1 win64 (Sep 27 2019) ******                    
  Copyright (c) 1986 - 2022 by Synopsys, Inc. All Rights Reserved.              
  This software and the associated documentation are proprietary
  to Synopsys, Inc. This software may only be used in accordance
  with the terms and conditions of a written license agreement with
  Synopsys, Inc. All other use, reproduction, or distribution of
  this software is strictly prohibited.
  Input File: RLC_s3_partial.sp                                                 
  Command line options: C:\synopsys\Hspice_P-2019.06-SP1-1\WIN64\hspice.com -i RLC_s3_partial.sp -o F:\Benchmark\RLC_s3_partial.lis
  Start time: Tue Dec  6 18:19:15 2022
  lic:  
  lic: FLEXlm: SDK_12.3 
  lic: USER:   44919                HOSTNAME: CZJ 
  lic: HOSTID: "000000000000"       PID:      30188 
  lic: Using FLEXlm license file: 
  lic: 27000@CZJ 
  lic: Checkout 1 hspice 
  lic: License/Maintenance for hspice will expire on 30-dec-2030/2030.12 
  lic: 1(in_use)/99(total) FLOATING license(s) on SERVER 27000@CZJ 
  lic:   
1****** HSPICE -- P-2019.06-SP1-1 win64 (Sep 27 2019) ******                    
 ******  
 * example rlc-3

 ****** circuit name directory
 circuit number to circuit name directory
   number circuitname                     definition         multiplier
        0 main circuit
        1 x1.                             seg                1.00 
        2 x2.                             seg                1.00 
        3 x3.                             seg                1.00 
  **info** (RLC_s3_partial.sp:4) DC voltage reset to initial transient source value in source 0:vin. new dc=0.0000D+00
  
      
 *****************************************************************
 ******  option summary
 ******
 runlvl  = 3         bypass  = 2.0000    

 **info** rebuilding matrix with pivot option

 **info** dc convergence successful at Newton-Raphson method 
 ******  
 * example rlc-3

 ****** operating point information tnom=  25.000 temp=  25.000 ******
 ****** operating point status is voltage   simulation time is     0.     
    node    =voltage      node    =voltage      node    =voltage

 +0:n_in1   =   0.      0:n_in2   =   0.      0:n_in3   =   0.     
 +0:n_out   =   0.      1:n_1     =   0.      2:n_1     =   0.     
 +3:n_1     =   0.     

 ******
 * example rlc-3

 ****** transient analysis tnom=  25.000 temp=  25.000 ******
x

 time         voltage   
             n_out      
   10.00000m -169.5389m 
   10.00400m -166.9746m 
   10.00800m -164.4103m 
   10.01200m -161.8460m 
   10.01600m -159.2817m 
   10.02000m -156.7175m 
   10.02400m -154.1532m 
   10.02800m -151.5889m 
   10.03200m -149.0246m 
   10.03600m -146.4603m 
   10.04000m -143.8961m 
   10.04400m -141.3318m 
   10.04800m -138.7675m 
   10.05200m -136.2032m 
   10.05600m -133.6389m 
   10.06000m -131.0747m 
   10.06400m -128.5104m 
   10.06800m -125.9461m 
   10.07200m -123.3818m 
   10.07600m -120.8175m 
   10.08000m -118.2533m 
   10.08400m -115.6890m 
   10.08800m -113.1247m 
   10.09200m -110.5604m 
   10.09600m -107.9961m 
   10.10000m -105.4318m 
   10.10400m -102.8676m 
   10.10800m -100.3033m 
   10.11200m  -97.7390m 
   10.11600m  -95.1747m 
   10.12000m  -92.6104m 
   10.12400m  -90.0462m 
   10.12800m  -87.4819m 
   10.13200m  -84.9176m 
   10.13600m  -82.3533m 
   10.14000m  -79.7890m 
   10.14400m  -77.2248m 
   10.14800m  -74.6605m 
   10.15200m  -72.0962m 
   10.15600m  -69.5319m 
   10.16000m  -66.9676m 
   10.16400m  -64.4034m 
   10.16800m  -61.8391m 
   10.17200m  -59.2748m 
   10.17600m  -56.7105m 
   10.18000m  -54.1462m 
   10.18400m  -51.5809m 
   10.18800m  -49.0144m 
   10.19200m  -46.4479m 
   10.19600m  -43.8814m 
   10.20000m  -41.3148m 
   10.20400m  -38.7483m 
   10.20800m  -36.1818m 
   10.21200m  -33.6153m 
   10.21600m  -31.0488m 
   10.22000m  -28.4822m 
   10.22400m  -25.9157m 
   10.22800m  -23.3492m 
   10.23200m  -20.7827m 
   10.23600m  -18.2161m 
   10.24000m  -15.6496m 
   10.24400m  -13.0831m 
   10.24800m  -10.5166m 
   10.25200m   -7.9501m 
   10.25600m   -5.3835m 
   10.26000m   -2.8170m 
   10.26400m -250.4905u 
   10.26800m    2.3160m 
   10.27200m    4.8826m 
   10.27600m    7.4491m 
   10.28000m   10.0156m 
   10.28400m   12.5821m 
   10.28800m   15.1486m 
   10.29200m   17.7152m 
   10.29600m   20.2817m 
   10.30000m   22.8482m 
   10.30400m   25.4147m 
   10.30800m   27.9813m 
   10.31200m   30.5478m 
   10.31600m   33.1143m 
   10.32000m   35.6808m 
   10.32400m   38.2473m 
   10.32800m   40.8128m 
   10.33200m   43.3770m 
   10.33600m   45.9412m 
   10.34000m   48.5054m 
   10.34400m   51.0697m 
   10.34800m   53.6339m 
   10.35200m   56.1981m 
   10.35600m   58.7623m 
   10.36000m   61.3266m 
   10.36400m   63.8908m 
   10.36800m   66.4550m 
   10.37200m   69.0193m 
   10.37600m   71.5835m 
   10.38000m   74.1477m 
   10.38400m   76.7119m 
   10.38800m   79.2762m 
   10.39200m   81.8404m 
   10.39600m   84.4046m 
   10.40000m   86.9688m 
   10.40400m   89.5331m 
   10.40800m   92.0973m 
   10.41200m   94.6615m 
   10.41600m   97.2257m 
   10.42000m   99.7900m 
   10.42400m  102.3542m 
   10.42800m  104.9184m 
   10.43200m  107.4776m 
   10.43600m  110.0300m 
   10.44000m  112.5824m 
   10.44400m  115.1348m 
   10.44800m  117.6873m 
   10.45200m  120.2397m 
   10.45600m  122.7921m 
   10.46000m  125.3445m 
   10.46400m  127.8969m 
   10.46800m  130.4493m 
   10.47200m  133.0017m 
   10.47600m  135.5541m 
   10.48000m  138.1065m 
   10.48400m  140.6590m 
   10.48800m  143.2114m 
   10.49200m  145.7638m 
   10.49600m  148.3162m 
   10.50000m  150.8686m 
   10.50400m  153.4210m 
   10.50800m  155.9734m 
   10.51200m  158.5258m 
   10.51600m  161.0455m 
   10.52000m  163.5419m 
   10.52400m  166.0383m 
   10.52800m  168.5347m 
   10.53200m  171.0311m 
   10.53600m  173.5274m 
   10.54000m  176.0238m 
   10.54400m  178.5202m 
   10.54800m  181.0166m 
   10.55200m  183.5130m 
   10.55600m  186.0093m 
   10.56000m  188.5057m 
   10.56400m  191.0021m 
   10.56800m  193.4985m 
   10.57200m  195.9949m 
   10.57600m  198.4912m 
   10.58000m  200.9876m 
   10.58400m  203.4840m 
   10.58800m  205.9804m 
   10.59200m  208.4768m 
   10.59600m  210.9732m 
   10.60000m  213.4695m 
   10.60400m  215.9659m 
   10.60800m  218.4623m 
   10.61200m  220.9587m 
   10.61600m  223.4551m 
   10.62000m  225.9514m 
   10.62400m  228.4478m 
   10.62800m  230.9442m 
   10.63200m  233.4406m 
   10.63600m  235.9370m 
   10.64000m  238.4333m 
   10.64400m  240.9297m 
   10.64800m  243.4261m 
   10.65200m  245.9225m 
   10.65600m  248.4189m 
   10.66000m  250.9152m 
   10.66400m  253.4116m 
   10.66800m  255.9080m 
   10.67200m  258.4044m 
   10.67600m  260.9008m 
   10.68000m  263.3972m 
   10.68400m  265.8935m 
   10.68800m  268.3899m 
   10.69200m  270.8863m 
   10.69600m  273.3827m 
   10.70000m  275.8791m 
   10.70400m  278.3754m 
   10.70800m  280.8718m 
   10.71200m  283.3682m 
   10.71600m  285.8646m 
   10.72000m  288.3610m 
   10.72400m  290.8573m 
   10.72800m  293.3537m 
   10.73200m  295.8501m 
   10.73600m  298.3465m 
   10.74000m  300.8429m 
   10.74400m  303.3393m 
   10.74800m  305.8356m 
   10.75200m  308.3320m 
   10.75600m  310.8284m 
   10.76000m  313.3248m 
   10.76400m  315.8212m 
   10.76800m  318.3175m 
   10.77200m  320.8139m 
   10.77600m  323.3103m 
   10.78000m  325.8067m 
   10.78400m  328.2372m 
   10.78800m  330.6595m 
   10.79200m  333.0817m 
   10.79600m  335.5039m 
   10.80000m  337.9261m 
   10.80400m  340.3483m 
   10.80800m  342.7706m 
   10.81200m  345.1928m 
   10.81600m  347.6150m 
   10.82000m  350.0372m 
   10.82400m  352.4594m 
   10.82800m  354.8816m 
   10.83200m  357.3039m 
   10.83600m  359.7261m 
   10.84000m  362.1483m 
   10.84400m  364.5705m 
   10.84800m  366.9927m 
   10.85200m  369.4150m 
   10.85600m  371.8372m 
   10.86000m  374.2594m 
   10.86400m  376.6816m 
   10.86800m  379.1038m 
   10.87200m  381.4848m 
   10.87600m  383.7760m 
   10.88000m  386.0672m 
   10.88400m  388.3584m 
   10.88800m  390.6496m 
   10.89200m  392.9408m 
   10.89600m  395.2320m 
   10.90000m  397.5231m 
   10.90400m  399.8143m 
   10.90800m  402.1055m 
   10.91200m  404.3967m 
   10.91600m  406.6879m 
   10.92000m  408.9791m 
   10.92400m  411.2703m 
   10.92800m  413.5615m 
   10.93200m  415.8527m 
   10.93600m  418.1439m 
   10.94000m  420.4351m 
   10.94400m  422.7263m 
   10.94800m  425.0175m 
   10.95200m  427.3087m 
   10.95600m  429.5999m 
   10.96000m  431.8911m 
   10.96400m  434.1823m 
   10.96800m  436.4735m 
   10.97200m  438.7646m 
   10.97600m  441.0558m 
   10.98000m  443.3470m 
   10.98400m  445.6382m 
   10.98800m  447.9294m 
   10.99200m  450.2206m 
   10.99600m  452.5118m 
   11.00000m  454.8030m 
   11.00400m  457.0942m 
   11.00800m  459.3854m 
   11.01200m  461.6766m 
   11.01600m  463.9678m 
   11.02000m  466.2590m 
   11.02400m  468.5502m 
   11.02800m  470.8414m 
   11.03200m  473.1326m 
   11.03600m  475.4238m 
   11.04000m  477.7149m 
   11.04400m  480.0061m 
   11.04800m  482.2973m 
   11.05200m  484.5885m 
   11.05600m  486.8797m 
   11.06000m  489.1709m 
   11.06400m  491.4621m 
   11.06800m  493.7533m 
   11.07200m  496.0445m 
   11.07600m  498.3357m 
   11.08000m  500.6269m 
   11.08400m  502.9181m 
   11.08800m  505.2093m 
   11.09200m  507.5005m 
   11.09600m  509.7917m 
   11.10000m  512.0829m 
   11.10400m  514.3741m 
   11.10800m  516.6652m 
   11.11200m  518.9564m 
   11.11600m  521.2476m 
   11.12000m  523.5388m 
   11.12400m  525.8300m 
   11.12800m  528.1212m 
   11.13200m  530.4124m 
   11.13600m  532.7036m 
   11.14000m  534.9948m 
   11.14400m  537.2860m 
   11.14800m  539.5772m 
   11.15200m  541.8684m 
   11.15600m  544.1596m 
   11.16000m  546.4389m 
   11.16400m  548.5866m 
   11.16800m  550.7343m 
   11.17200m  552.8820m 
   11.17600m  555.0297m 
   11.18000m  557.1774m 
   11.18400m  559.3251m 
   11.18800m  561.4728m 
   11.19200m  563.6205m 
   11.19600m  565.7682m 
   11.20000m  567.9159m 
   11.20400m  570.0636m 
   11.20800m  572.2113m 
   11.21200m  574.3590m 
   11.21600m  576.5067m 
   11.22000m  578.6544m 
   11.22400m  580.8021m 
   11.22800m  582.9498m 
   11.23200m  585.0975m 
   11.23600m  587.2452m 
   11.24000m  589.3929m 
   11.24400m  591.5406m 
   11.24800m  593.5495m 
   11.25200m  595.5262m 
   11.25600m  597.5029m 
   11.26000m  599.4796m 
   11.26400m  601.4562m 
   11.26800m  603.4329m 
   11.27200m  605.4096m 
   11.27600m  607.3863m 
   11.28000m  609.3630m 
   11.28400m  611.3397m 
   11.28800m  613.3164m 
   11.29200m  615.2931m 
   11.29600m  617.2698m 
   11.30000m  619.2464m 
   11.30400m  621.2231m 
   11.30800m  623.1998m 
   11.31200m  625.1765m 
   11.31600m  627.1532m 
   11.32000m  629.1299m 
   11.32400m  631.1066m 
   11.32800m  633.0833m 
   11.33200m  635.0599m 
   11.33600m  637.0366m 
   11.34000m  639.0133m 
   11.34400m  640.9900m 
   11.34800m  642.9667m 
   11.35200m  644.9434m 
   11.35600m  646.9201m 
   11.36000m  648.8968m 
   11.36400m  650.8734m 
   11.36800m  652.8501m 
   11.37200m  654.8268m 
   11.37600m  656.8035m 
   11.38000m  658.7802m 
   11.38400m  660.7569m 
   11.38800m  662.7336m 
   11.39200m  664.7103m 
   11.39600m  666.6870m 
   11.40000m  668.6636m 
   11.40400m  670.6403m 
   11.40800m  672.6170m 
   11.41200m  674.5937m 
   11.41600m  676.5704m 
   11.42000m  678.5471m 
   11.42400m  680.5238m 
   11.42800m  682.5005m 
   11.43200m  684.4771m 
   11.43600m  686.4538m 
   11.44000m  688.4305m 
   11.44400m  690.4072m 
   11.44800m  692.3839m 
   11.45200m  694.3606m 
   11.45600m  696.3373m 
   11.46000m  698.3140m 
   11.46400m  700.2907m 
   11.46800m  702.2673m 
   11.47200m  704.2440m 
   11.47600m  706.2207m 
   11.48000m  708.1974m 
   11.48400m  710.1741m 
   11.48800m  712.1508m 
   11.49200m  714.1275m 
   11.49600m  716.1042m 
   11.50000m  718.0808m 
   11.50400m  719.6995m 
   11.50800m  721.3182m 
   11.51200m  722.9368m 
   11.51600m  724.5555m 
   11.52000m  726.1741m 
   11.52400m  727.7928m 
   11.52800m  729.4115m 
   11.53200m  731.0301m 
   11.53600m  732.6488m 
   11.54000m  734.2674m 
   11.54400m  735.8861m 
   11.54800m  737.5048m 
   11.55200m  739.1234m 
   11.55600m  740.7421m 
   11.56000m  742.3607m 
   11.56400m  743.9794m 
   11.56800m  745.5981m 
   11.57200m  747.2167m 
   11.57600m  748.8354m 
   11.58000m  750.4540m 
   11.58400m  752.0727m 
   11.58800m  753.6913m 
   11.59200m  755.3100m 
   11.59600m  756.9287m 
   11.60000m  758.5473m 
   11.60400m  760.1660m 
   11.60800m  761.7846m 
   11.61200m  763.4033m 
   11.61600m  765.0220m 
   11.62000m  766.6406m 
   11.62400m  768.2593m 
   11.62800m  769.8779m 
   11.63200m  771.4966m 
   11.63600m  773.1153m 
   11.64000m  774.7339m 
   11.64400m  776.3526m 
   11.64800m  777.9712m 
   11.65200m  779.5899m 
   11.65600m  781.2085m 
   11.66000m  782.8272m 
   11.66400m  784.4459m 
   11.66800m  786.0645m 
   11.67200m  787.6832m 
   11.67600m  789.3018m 
   11.68000m  790.9205m 
   11.68400m  792.5392m 
   11.68800m  794.1578m 
   11.69200m  795.7765m 
   11.69600m  797.3820m 
   11.70000m  798.9652m 
   11.70400m  800.5485m 
   11.70800m  802.1317m 
   11.71200m  803.7149m 
   11.71600m  805.2982m 
   11.72000m  806.8814m 
   11.72400m  808.4646m 
   11.72800m  810.0479m 
   11.73200m  811.6311m 
   11.73600m  813.2144m 
   11.74000m  814.7976m 
   11.74400m  816.3808m 
   11.74800m  817.9641m 
   11.75200m  819.5473m 
   11.75600m  821.1285m 
   11.76000m  822.5577m 
   11.76400m  823.9869m 
   11.76800m  825.4160m 
   11.77200m  826.8452m 
   11.77600m  828.2744m 
   11.78000m  829.7036m 
   11.78400m  831.1328m 
   11.78800m  832.5619m 
   11.79200m  833.9911m 
   11.79600m  835.4203m 
   11.80000m  836.8495m 
   11.80400m  838.2787m 
   11.80800m  839.7079m 
   11.81200m  841.1370m 
   11.81600m  842.5662m 
   11.82000m  843.9954m 
   11.82400m  845.4246m 
   11.82800m  846.8538m 
   11.83200m  848.2829m 
   11.83600m  849.7121m 
   11.84000m  851.1413m 
   11.84400m  852.5705m 
   11.84800m  853.9997m 
   11.85200m  855.4289m 
   11.85600m  856.8580m 
   11.86000m  858.2872m 
   11.86400m  859.7164m 
   11.86800m  861.1456m 
   11.87200m  862.5748m 
   11.87600m  864.0040m 
   11.88000m  865.4331m 
   11.88400m  866.8623m 
   11.88800m  868.2915m 
   11.89200m  869.7207m 
   11.89600m  871.1499m 
   11.90000m  872.5790m 
   11.90400m  874.0082m 
   11.90800m  875.4374m 
   11.91200m  876.8666m 
   11.91600m  878.2958m 
   11.92000m  879.7250m 
   11.92400m  881.1541m 
   11.92800m  882.5833m 
   11.93200m  884.0125m 
   11.93600m  885.4417m 
   11.94000m  886.8709m 
   11.94400m  888.3000m 
   11.94800m  889.7292m 
   11.95200m  891.1584m 
   11.95600m  892.3508m 
   11.96000m  893.5071m 
   11.96400m  894.6634m 
   11.96800m  895.8196m 
   11.97200m  896.9759m 
   11.97600m  898.1322m 
   11.98000m  899.2885m 
   11.98400m  900.4447m 
   11.98800m  901.6010m 
   11.99200m  902.7573m 
   11.99600m  903.9135m 
   12.00000m  905.0698m 
   12.00400m  906.2261m 
   12.00800m  907.3824m 
   12.01200m  908.5386m 
   12.01600m  909.6949m 
   12.02000m  910.8512m 
   12.02400m  912.0075m 
   12.02800m  913.1637m 
   12.03200m  914.3200m 
   12.03600m  915.4763m 
   12.04000m  916.6325m 
   12.04400m  917.7888m 
   12.04800m  918.9451m 
   12.05200m  920.1014m 
   12.05600m  921.2576m 
   12.06000m  922.4139m 
   12.06400m  923.5702m 
   12.06800m  924.7265m 
   12.07200m  925.8827m 
   12.07600m  927.0390m 
   12.08000m  928.1953m 
   12.08400m  929.3516m 
   12.08800m  930.5078m 
   12.09200m  931.6641m 
   12.09600m  932.8204m 
   12.10000m  933.9766m 
   12.10400m  935.1329m 
   12.10800m  936.2892m 
   12.11200m  937.4455m 
   12.11600m  938.6017m 
   12.12000m  939.7580m 
   12.12400m  940.9143m 
   12.12800m  942.0706m 
   12.13200m  943.2268m 
   12.13600m  944.3831m 
   12.14000m  945.5394m 
   12.14400m  946.6956m 
   12.14800m  947.8519m 
   12.15200m  949.0082m 
   12.15600m  950.1645m 
   12.16000m  951.3207m 
   12.16400m  952.4570m 
   12.16800m  953.3862m 
   12.17200m  954.3155m 
   12.17600m  955.2447m 
   12.18000m  956.1740m 
   12.18400m  957.1032m 
   12.18800m  958.0325m 
   12.19200m  958.9617m 
   12.19600m  959.8910m 
   12.20000m  960.8202m 
   12.20400m  961.7495m 
   12.20800m  962.6787m 
   12.21200m  963.6080m 
   12.21600m  964.5372m 
   12.22000m  965.4665m 
   12.22400m  966.3957m 
   12.22800m  967.3250m 
   12.23200m  968.2542m 
   12.23600m  969.1835m 
   12.24000m  970.1127m 
   12.24400m  971.0420m 
   12.24800m  971.9519m 
   12.25200m  972.5899m 
   12.25600m  973.2279m 
   12.26000m  973.8659m 
   12.26400m  974.5039m 
   12.26800m  975.1419m 
   12.27200m  975.7798m 
   12.27600m  976.4178m 
   12.28000m  977.0558m 
   12.28400m  977.6938m 
   12.28800m  978.3318m 
   12.29200m  978.9698m 
   12.29600m  979.6078m 
   12.30000m  980.2458m 
   12.30400m  980.8837m 
   12.30800m  981.5217m 
   12.31200m  982.1597m 
   12.31600m  982.7977m 
   12.32000m  983.4357m 
   12.32400m  984.0737m 
   12.32800m  984.7117m 
   12.33200m  985.3496m 
   12.33600m  985.9876m 
   12.34000m  986.6256m 
   12.34400m  987.2636m 
   12.34800m  987.9016m 
   12.35200m  988.5396m 
   12.35600m  989.1776m 
   12.36000m  989.8156m 
   12.36400m  990.4535m 
   12.36800m  991.0915m 
   12.37200m  991.7295m 
   12.37600m  992.3675m 
   12.38000m  993.0055m 
   12.38400m  993.6435m 
   12.38800m  994.2815m 
   12.39200m  994.9194m 
   12.39600m  995.5574m 
   12.40000m  996.1954m 
   12.40400m  996.8334m 
   12.40800m  997.4714m 
   12.41200m  998.1094m 
   12.41600m  998.7474m 
   12.42000m  999.3853m 
   12.42400m    1.0000  
   12.42800m    1.0007  
   12.43200m    1.0013  
   12.43600m    1.0019  
   12.44000m    1.0026  
   12.44400m    1.0032  
   12.44800m    1.0039  
   12.45200m    1.0045  
   12.45600m    1.0051  
   12.46000m    1.0058  
   12.46400m    1.0064  
   12.46800m    1.0070  
   12.47200m    1.0077  
   12.47600m    1.0083  
   12.48000m    1.0090  
   12.48400m    1.0096  
   12.48800m    1.0102  
   12.49200m    1.0109  
   12.49600m    1.0115  
   12.50000m    1.0121  
   12.50400m    1.0123  
   12.50800m    1.0124  
   12.51200m    1.0125  
   12.51600m    1.0126  
   12.52000m    1.0128  
   12.52400m    1.0129  
   12.52800m    1.0130  
   12.53200m    1.0132  
   12.53600m    1.0133  
   12.54000m    1.0134  
   12.54400m    1.0135  
   12.54800m    1.0137  
   12.55200m    1.0138  
   12.55600m    1.0139  
   12.56000m    1.0140  
   12.56400m    1.0142  
   12.56800m    1.0143  
   12.57200m    1.0144  
   12.57600m    1.0145  
   12.58000m    1.0147  
   12.58400m    1.0148  
   12.58800m    1.0149  
   12.59200m    1.0150  
   12.59600m    1.0152  
   12.60000m    1.0153  
   12.60400m    1.0154  
   12.60800m    1.0155  
   12.61200m    1.0157  
   12.61600m    1.0158  
   12.62000m    1.0159  
   12.62400m    1.0160  
   12.62800m    1.0162  
   12.63200m    1.0163  
   12.63600m    1.0164  
   12.64000m    1.0165  
   12.64400m    1.0167  
   12.64800m    1.0168  
   12.65200m    1.0169  
   12.65600m    1.0170  
   12.66000m    1.0172  
   12.66400m    1.0173  
   12.66800m    1.0174  
   12.67200m    1.0175  
   12.67600m    1.0177  
   12.68000m    1.0178  
   12.68400m    1.0179  
   12.68800m    1.0181  
   12.69200m    1.0182  
   12.69600m    1.0183  
   12.70000m    1.0184  
   12.70400m    1.0185  
   12.70800m    1.0186  
   12.71200m    1.0187  
   12.71600m    1.0188  
   12.72000m    1.0189  
   12.72400m    1.0190  
   12.72800m    1.0190  
   12.73200m    1.0191  
   12.73600m    1.0192  
   12.74000m    1.0193  
   12.74400m    1.0194  
   12.74800m    1.0195  
   12.75200m    1.0195  
   12.75600m    1.0194  
   12.76000m    1.0194  
   12.76400m    1.0193  
   12.76800m    1.0193  
   12.77200m    1.0192  
   12.77600m    1.0191  
   12.78000m    1.0191  
   12.78400m    1.0190  
   12.78800m    1.0189  
   12.79200m    1.0189  
   12.79600m    1.0188  
   12.80000m    1.0187  
   12.80400m    1.0187  
   12.80800m    1.0186  
   12.81200m    1.0185  
   12.81600m    1.0185  
   12.82000m    1.0184  
   12.82400m    1.0183  
   12.82800m    1.0183  
   12.83200m    1.0182  
   12.83600m    1.0181  
   12.84000m    1.0181  
   12.84400m    1.0180  
   12.84800m    1.0179  
   12.85200m    1.0179  
   12.85600m    1.0178  
   12.86000m    1.0178  
   12.86400m    1.0177  
   12.86800m    1.0176  
   12.87200m    1.0176  
   12.87600m    1.0175  
   12.88000m    1.0174  
   12.88400m    1.0174  
   12.88800m    1.0173  
   12.89200m    1.0172  
   12.89600m    1.0172  
   12.90000m    1.0171  
   12.90400m    1.0170  
   12.90800m    1.0170  
   12.91200m    1.0169  
   12.91600m    1.0166  
   12.92000m    1.0163  
   12.92400m    1.0159  
   12.92800m    1.0156  
   12.93200m    1.0153  
   12.93600m    1.0149  
   12.94000m    1.0146  
   12.94400m    1.0142  
   12.94800m    1.0139  
   12.95200m    1.0135  
   12.95600m    1.0132  
   12.96000m    1.0128  
   12.96400m    1.0125  
   12.96800m    1.0121  
   12.97200m    1.0118  
   12.97600m    1.0115  
   12.98000m    1.0111  
   12.98400m    1.0108  
   12.98800m    1.0104  
   12.99200m    1.0101  
   12.99600m    1.0097  
   13.00000m    1.0094  
   13.00400m    1.0090  
   13.00800m    1.0087  
   13.01200m    1.0084  
   13.01600m    1.0080  
   13.02000m    1.0077  
   13.02400m    1.0073  
   13.02800m    1.0070  
   13.03200m    1.0066  
   13.03600m    1.0063  
   13.04000m    1.0059  
   13.04400m    1.0056  
   13.04800m    1.0053  
   13.05200m    1.0049  
   13.05600m    1.0046  
   13.06000m    1.0042  
   13.06400m    1.0039  
   13.06800m    1.0035  
   13.07200m    1.0032  
   13.07600m    1.0028  
   13.08000m    1.0025  
   13.08400m    1.0021  
   13.08800m    1.0018  
   13.09200m    1.0015  
   13.09600m    1.0011  
   13.10000m    1.0008  
   13.10400m    1.0004  
   13.10800m    1.0001  
   13.11200m  999.7362m 
   13.11600m  999.3914m 
   13.12000m  998.8581m 
   13.12400m  998.2652m 
   13.12800m  997.6724m 
   13.13200m  997.0795m 
   13.13600m  996.4866m 
   13.14000m  995.8937m 
   13.14400m  995.3009m 
   13.14800m  994.7080m 
   13.15200m  994.1151m 
   13.15600m  993.5222m 
   13.16000m  992.9294m 
   13.16400m  992.3365m 
   13.16800m  991.7436m 
   13.17200m  991.1508m 
   13.17600m  990.5579m 
   13.18000m  989.9650m 
   13.18400m  989.3721m 
   13.18800m  988.7793m 
   13.19200m  988.1864m 
   13.19600m  987.5935m 
   13.20000m  987.0006m 
   13.20400m  986.4078m 
   13.20800m  985.8149m 
   13.21200m  985.2220m 
   13.21600m  984.3611m 
   13.22000m  983.4413m 
   13.22400m  982.5215m 
   13.22800m  981.6017m 
   13.23200m  980.6819m 
   13.23600m  979.7621m 
   13.24000m  978.8423m 
   13.24400m  977.9225m 
   13.24800m  977.0027m 
   13.25200m  976.0829m 
   13.25600m  975.1631m 
   13.26000m  974.2433m 
   13.26400m  973.3235m 
   13.26800m  972.4037m 
   13.27200m  971.4839m 
   13.27600m  970.5641m 
   13.28000m  969.6443m 
   13.28400m  968.7244m 
   13.28800m  967.8046m 
   13.29200m  966.8848m 
   13.29600m  965.9650m 
   13.30000m  965.0452m 
   13.30400m  964.1254m 
   13.30800m  963.2056m 
   13.31200m  962.2858m 
   13.31600m  961.3660m 
   13.32000m  960.4462m 
   13.32400m  959.5264m 
   13.32800m  958.6066m 
   13.33200m  957.6868m 
   13.33600m  956.7670m 
   13.34000m  955.8472m 
   13.34400m  954.9274m 
   13.34800m  954.0076m 
   13.35200m  953.0878m 
   13.35600m  952.1679m 
   13.36000m  951.2481m 
   13.36400m  950.3283m 
   13.36800m  949.4085m 
   13.37200m  948.4887m 
   13.37600m  947.5689m 
   13.38000m  946.6491m 
   13.38400m  945.7293m 
   13.38800m  944.8095m 
   13.39200m  943.8897m 
   13.39600m  942.9699m 
   13.40000m  942.0501m 
   13.40400m  941.1303m 
   13.40800m  940.2105m 
   13.41200m  939.2907m 
   13.41600m  938.3709m 
   13.42000m  937.4511m 
   13.42400m  936.5313m 
   13.42800m  935.6115m 
   13.43200m  934.6916m 
   13.43600m  933.7718m 
   13.44000m  932.8520m 
   13.44400m  931.9322m 
   13.44800m  931.0124m 
   13.45200m  930.0926m 
   13.45600m  929.1728m 
   13.46000m  928.2530m 
   13.46400m  927.3332m 
   13.46800m  926.4134m 
   13.47200m  925.4936m 
   13.47600m  924.5738m 
   13.48000m  923.6540m 
   13.48400m  922.7342m 
   13.48800m  921.8144m 
   13.49200m  920.8946m 
   13.49600m  919.9748m 
   13.50000m  919.0550m 
   13.50400m  917.6759m 
   13.50800m  916.2969m 
   13.51200m  914.9178m 
   13.51600m  913.5388m 
   13.52000m  912.1597m 
   13.52400m  910.7807m 
   13.52800m  909.4016m 
   13.53200m  908.0226m 
   13.53600m  906.6435m 
   13.54000m  905.2645m 
   13.54400m  903.8854m 
   13.54800m  902.5064m 
   13.55200m  901.1273m 
   13.55600m  899.7483m 
   13.56000m  898.3692m 
   13.56400m  896.9902m 
   13.56800m  895.6111m 
   13.57200m  894.2321m 
   13.57600m  892.8530m 
   13.58000m  891.4740m 
   13.58400m  890.0949m 
   13.58800m  888.7159m 
   13.59200m  887.3368m 
   13.59600m  885.9578m 
   13.60000m  884.5787m 
   13.60400m  883.1997m 
   13.60800m  881.8206m 
   13.61200m  880.4416m 
   13.61600m  879.0625m 
   13.62000m  877.6835m 
   13.62400m  876.3044m 
   13.62800m  874.9254m 
   13.63200m  873.5463m 
   13.63600m  872.1673m 
   13.64000m  870.7882m 
   13.64400m  869.4092m 
   13.64800m  868.0302m 
   13.65200m  866.6511m 
   13.65600m  865.2721m 
   13.66000m  863.8930m 
   13.66400m  862.5140m 
   13.66800m  861.1349m 
   13.67200m  859.7477m 
   13.67600m  858.3325m 
   13.68000m  856.9174m 
   13.68400m  855.5022m 
   13.68800m  854.0870m 
   13.69200m  852.6718m 
   13.69600m  851.2567m 
   13.70000m  849.8415m 
   13.70400m  848.4263m 
   13.70800m  847.0111m 
   13.71200m  845.5960m 
   13.71600m  844.1808m 
   13.72000m  842.7656m 
   13.72400m  841.3504m 
   13.72800m  839.9353m 
   13.73200m  838.4210m 
   13.73600m  836.8596m 
   13.74000m  835.2982m 
   13.74400m  833.7368m 
   13.74800m  832.1754m 
   13.75200m  830.6140m 
   13.75600m  829.0526m 
   13.76000m  827.4912m 
   13.76400m  825.9298m 
   13.76800m  824.3683m 
   13.77200m  822.8069m 
   13.77600m  821.2455m 
   13.78000m  819.6841m 
   13.78400m  818.1227m 
   13.78800m  816.5613m 
   13.79200m  814.9999m 
   13.79600m  813.4385m 
   13.80000m  811.8771m 
   13.80400m  810.3157m 
   13.80800m  808.7543m 
   13.81200m  807.1928m 
   13.81600m  805.6314m 
   13.82000m  804.0700m 
   13.82400m  802.5086m 
   13.82800m  800.9472m 
   13.83200m  799.3858m 
   13.83600m  797.8244m 
   13.84000m  796.2630m 
   13.84400m  794.7016m 
   13.84800m  793.1402m 
   13.85200m  791.5787m 
   13.85600m  790.0173m 
   13.86000m  788.4559m 
   13.86400m  786.8945m 
   13.86800m  785.3331m 
   13.87200m  783.7717m 
   13.87600m  782.2103m 
   13.88000m  780.6489m 
   13.88400m  779.0875m 
   13.88800m  777.5261m 
   13.89200m  775.9647m 
   13.89600m  774.4032m 
   13.90000m  772.8418m 
   13.90400m  771.2804m 
   13.90800m  769.7190m 
   13.91200m  768.1576m 
   13.91600m  766.5662m 
   13.92000m  764.7637m 
   13.92400m  762.9611m 
   13.92800m  761.1586m 
   13.93200m  759.3560m 
   13.93600m  757.5535m 
   13.94000m  755.7509m 
   13.94400m  753.9484m 
   13.94800m  752.1458m 
   13.95200m  750.3433m 
   13.95600m  748.5407m 
   13.96000m  746.7382m 
   13.96400m  744.9356m 
   13.96800m  743.1331m 
   13.97200m  741.3306m 
   13.97600m  739.5280m 
   13.98000m  737.7255m 
   13.98400m  735.9229m 
   13.98800m  734.1204m 
   13.99200m  732.3178m 
   13.99600m  730.5153m 
   14.00000m  728.7127m 
   14.00400m  726.9102m 
   14.00800m  725.1076m 
   14.01200m  723.3051m 
   14.01600m  721.5025m 
   14.02000m  719.7000m 
   14.02400m  717.8974m 
   14.02800m  716.0949m 
   14.03200m  714.2924m 
   14.03600m  712.4898m 
   14.04000m  710.6873m 
   14.04400m  708.8847m 
   14.04800m  707.0822m 
   14.05200m  705.2796m 
   14.05600m  703.4771m 
   14.06000m  701.6745m 
   14.06400m  699.8720m 
   14.06800m  698.0694m 
   14.07200m  696.2669m 
   14.07600m  694.4643m 
   14.08000m  692.6618m 
   14.08400m  690.8592m 
   14.08800m  689.0567m 
   14.09200m  687.2542m 
   14.09600m  685.4516m 
   14.10000m  683.6491m 
   14.10400m  681.8465m 
   14.10800m  680.0440m 
   14.11200m  678.2414m 
   14.11600m  676.4389m 
   14.12000m  674.6363m 
   14.12400m  672.8338m 
   14.12800m  671.0312m 
   14.13200m  669.2287m 
   14.13600m  667.4261m 
   14.14000m  665.5522m 
   14.14400m  663.5655m 
   14.14800m  661.5788m 
   14.15200m  659.5921m 
   14.15600m  657.6053m 
   14.16000m  655.6186m 
   14.16400m  653.6319m 
   14.16800m  651.6452m 
   14.17200m  649.6585m 
   14.17600m  647.6718m 
   14.18000m  645.6851m 
   14.18400m  643.6984m 
   14.18800m  641.7117m 
   14.19200m  639.7250m 
   14.19600m  637.7383m 
   14.20000m  635.7516m 
   14.20400m  633.7649m 
   14.20800m  631.7782m 
   14.21200m  629.7915m 
   14.21600m  627.8048m 
   14.22000m  625.8181m 
   14.22400m  623.8314m 
   14.22800m  621.8447m 
   14.23200m  619.7197m 
   14.23600m  617.5444m 
   14.24000m  615.3692m 
   14.24400m  613.1939m 
   14.24800m  611.0187m 
   14.25200m  608.8434m 
   14.25600m  606.6682m 
   14.26000m  604.4929m 
   14.26400m  602.3177m 
   14.26800m  600.1425m 
   14.27200m  597.9672m 
   14.27600m  595.7920m 
   14.28000m  593.6167m 
   14.28400m  591.4415m 
   14.28800m  589.2662m 
   14.29200m  587.0910m 
   14.29600m  584.9157m 
   14.30000m  582.7405m 
   14.30400m  580.5652m 
   14.30800m  578.3900m 
   14.31200m  576.2147m 
   14.31600m  574.0395m 
   14.32000m  571.8642m 
   14.32400m  569.6890m 
   14.32800m  567.5137m 
   14.33200m  565.3385m 
   14.33600m  563.1632m 
   14.34000m  560.9880m 
   14.34400m  558.8127m 
   14.34800m  556.6375m 
   14.35200m  554.4623m 
   14.35600m  552.2870m 
   14.36000m  550.1118m 
   14.36400m  547.9365m 
   14.36800m  545.7613m 
   14.37200m  543.5860m 
   14.37600m  541.4108m 
   14.38000m  539.2355m 
   14.38400m  537.0603m 
   14.38800m  534.8850m 
   14.39200m  532.7098m 
   14.39600m  530.5345m 
   14.40000m  528.3593m 
   14.40400m  526.1840m 
   14.40800m  524.0088m 
   14.41200m  521.8335m 
   14.41600m  519.6583m 
   14.42000m  517.4830m 
   14.42400m  515.3078m 
   14.42800m  513.1326m 
   14.43200m  510.9573m 
   14.43600m  508.7821m 
   14.44000m  506.6068m 
   14.44400m  504.4316m 
   14.44800m  502.2563m 
   14.45200m  500.0811m 
   14.45600m  497.9058m 
   14.46000m  495.7306m 
   14.46400m  493.5553m 
   14.46800m  491.3801m 
   14.47200m  489.2048m 
   14.47600m  487.0296m 
   14.48000m  484.8543m 
   14.48400m  482.6791m 
   14.48800m  480.5038m 
   14.49200m  478.3286m 
   14.49600m  476.1533m 
   14.50000m  473.9781m 
   14.50400m  471.8028m 
   14.50800m  469.6276m 
   14.51200m  467.4524m 
   14.51600m  465.2771m 
   14.52000m  463.0627m 
   14.52400m  460.7236m 
   14.52800m  458.3846m 
   14.53200m  456.0456m 
   14.53600m  453.7066m 
   14.54000m  451.3676m 
   14.54400m  449.0285m 
   14.54800m  446.6895m 
   14.55200m  444.3505m 
   14.55600m  442.0115m 
   14.56000m  439.6725m 
   14.56400m  437.3334m 
   14.56800m  434.9944m 
   14.57200m  432.6554m 
   14.57600m  430.3164m 
   14.58000m  427.9774m 
   14.58400m  425.6384m 
   14.58800m  423.2993m 
   14.59200m  420.9603m 
   14.59600m  418.6213m 
   14.60000m  416.2823m 
   14.60400m  413.9433m 
   14.60800m  411.5533m 
   14.61200m  409.1146m 
   14.61600m  406.6759m 
   14.62000m  404.2371m 
   14.62400m  401.7984m 
   14.62800m  399.3597m 
   14.63200m  396.9210m 
   14.63600m  394.4823m 
   14.64000m  392.0436m 
   14.64400m  389.6049m 
   14.64800m  387.1661m 
   14.65200m  384.7274m 
   14.65600m  382.2887m 
   14.66000m  379.8500m 
   14.66400m  377.4113m 
   14.66800m  374.9726m 
   14.67200m  372.5339m 
   14.67600m  370.0952m 
   14.68000m  367.6564m 
   14.68400m  365.2177m 
   14.68800m  362.7790m 
   14.69200m  360.3403m 
   14.69600m  357.9016m 
   14.70000m  355.4629m 
   14.70400m  353.0242m 
   14.70800m  350.5854m 
   14.71200m  348.1467m 
   14.71600m  345.7080m 
   14.72000m  343.2693m 
   14.72400m  340.8306m 
   14.72800m  338.3919m 
   14.73200m  335.9532m 
   14.73600m  333.5144m 
   14.74000m  331.0757m 
   14.74400m  328.6370m 
   14.74800m  326.1983m 
   14.75200m  323.7596m 
   14.75600m  321.3209m 
   14.76000m  318.8822m 
   14.76400m  316.4434m 
   14.76800m  314.0047m 
   14.77200m  311.5660m 
   14.77600m  309.1273m 
   14.78000m  306.6886m 
   14.78400m  304.2499m 
   14.78800m  301.8112m 
   14.79200m  299.3724m 
   14.79600m  296.9337m 
   14.80000m  294.4950m 
   14.80400m  292.0563m 
   14.80800m  289.6176m 
   14.81200m  287.1789m 
   14.81600m  284.7402m 
   14.82000m  282.3014m 
   14.82400m  279.8627m 
   14.82800m  277.4240m 
   14.83200m  274.9853m 
   14.83600m  272.5466m 
   14.84000m  270.1079m 
   14.84400m  267.6692m 
   14.84800m  265.2304m 
   14.85200m  262.7917m 
   14.85600m  260.3530m 
   14.86000m  257.9143m 
   14.86400m  255.4756m 
   14.86800m  253.0369m 
   14.87200m  250.5982m 
   14.87600m  248.1594m 
   14.88000m  245.7207m 
   14.88400m  243.2820m 
   14.88800m  240.7512m 
   14.89200m  238.2185m 
   14.89600m  235.6859m 
   14.90000m  233.1532m 
   14.90400m  230.6206m 
   14.90800m  228.0879m 
   14.91200m  225.5552m 
   14.91600m  223.0226m 
   14.92000m  220.4899m 
   14.92400m  217.9573m 
   14.92800m  215.4246m 
   14.93200m  212.8919m 
   14.93600m  210.3593m 
   14.94000m  207.8266m 
   14.94400m  205.2940m 
   14.94800m  202.7613m 
   14.95200m  200.2286m 
   14.95600m  197.6960m 
   14.96000m  195.1633m 
   14.96400m  192.6307m 
   14.96800m  190.0980m 
   14.97200m  187.5653m 
   14.97600m  185.0327m 
   14.98000m  182.5000m 
   14.98400m  179.9674m 
   14.98800m  177.4347m 
   14.99200m  174.9020m 
   14.99600m  172.3694m 
   15.00000m  169.8367m 
   15.00400m  167.2656m 
   15.00800m  164.6944m 
   15.01200m  162.1233m 
   15.01600m  159.5521m 
   15.02000m  156.9810m 
   15.02400m  154.4098m 
   15.02800m  151.8387m 
   15.03200m  149.2675m 
   15.03600m  146.6964m 
   15.04000m  144.1252m 
   15.04400m  141.5541m 
   15.04800m  138.9830m 
   15.05200m  136.4118m 
   15.05600m  133.8407m 
   15.06000m  131.2695m 
   15.06400m  128.6984m 
   15.06800m  126.1272m 
   15.07200m  123.5561m 
   15.07600m  120.9849m 
   15.08000m  118.4138m 
   15.08400m  115.8426m 
   15.08800m  113.2715m 
   15.09200m  110.7003m 
   15.09600m  108.1292m 
   15.10000m  105.5580m 
   15.10400m  102.9869m 
   15.10800m  100.4157m 
   15.11200m   97.8446m 
   15.11600m   95.2734m 
   15.12000m   92.7023m 
   15.12400m   90.1312m 
   15.12800m   87.5600m 
   15.13200m   84.9889m 
   15.13600m   82.4177m 
   15.14000m   79.8466m 
   15.14400m   77.2754m 
   15.14800m   74.7043m 
   15.15200m   72.1331m 
   15.15600m   69.5620m 
   15.16000m   66.9908m 
   15.16400m   64.4197m 
   15.16800m   61.8485m 
   15.17200m   59.2774m 
   15.17600m   56.7062m 
   15.18000m   54.1351m 
   15.18400m   51.5639m 
   15.18800m   48.9930m 
   15.19200m   46.4221m 
   15.19600m   43.8512m 
   15.20000m   41.2803m 
   15.20400m   38.7094m 
   15.20800m   36.1385m 
   15.21200m   33.5676m 
   15.21600m   30.9967m 
   15.22000m   28.4258m 
   15.22400m   25.8549m 
   15.22800m   23.2840m 
   15.23200m   20.7131m 
   15.23600m   18.1422m 
   15.24000m   15.5713m 
   15.24400m   13.0004m 
   15.24800m   10.4295m 
   15.25200m    7.8586m 
   15.25600m    5.2877m 
   15.26000m    2.7168m 
   15.26400m  145.8906u 
   15.26800m   -2.4250m 
   15.27200m   -4.9959m 
   15.27600m   -7.5668m 
   15.28000m  -10.1377m 
   15.28400m  -12.7086m 
   15.28800m  -15.2795m 
   15.29200m  -17.8504m 
   15.29600m  -20.4213m 
   15.30000m  -22.9922m 
   15.30400m  -25.5631m 
   15.30800m  -28.1340m 
   15.31200m  -30.7049m 
   15.31600m  -33.2758m 
   15.32000m  -35.8467m 
   15.32400m  -38.4176m 
   15.32800m  -40.9885m 
   15.33200m  -43.5594m 
   15.33600m  -46.1303m 
   15.34000m  -48.7012m 
   15.34400m  -51.2693m 
   15.34800m  -53.8335m 
   15.35200m  -56.3977m 
   15.35600m  -58.9619m 
   15.36000m  -61.5260m 
   15.36400m  -64.0902m 
   15.36800m  -66.6544m 
   15.37200m  -69.2186m 
   15.37600m  -71.7828m 
   15.38000m  -74.3469m 
   15.38400m  -76.9111m 
   15.38800m  -79.4753m 
   15.39200m  -82.0395m 
   15.39600m  -84.6036m 
   15.40000m  -87.1678m 
   15.40400m  -89.7320m 
   15.40800m  -92.2962m 
   15.41200m  -94.8604m 
   15.41600m  -97.4245m 
   15.42000m  -99.9887m 
   15.42400m -102.5529m 
   15.42800m -105.1171m 
   15.43200m -107.6813m 
   15.43600m -110.2454m 
   15.44000m -112.8096m 
   15.44400m -115.3662m 
   15.44800m -117.9160m 
   15.45200m -120.4658m 
   15.45600m -123.0156m 
   15.46000m -125.5654m 
   15.46400m -128.1153m 
   15.46800m -130.6651m 
   15.47200m -133.2149m 
   15.47600m -135.7647m 
   15.48000m -138.3145m 
   15.48400m -140.8644m 
   15.48800m -143.4142m 
   15.49200m -145.9640m 
   15.49600m -148.5138m 
   15.50000m -151.0636m 
   15.50400m -153.6135m 
   15.50800m -156.1633m 
   15.51200m -158.7131m 
   15.51600m -161.2629m 
   15.52000m -163.8127m 
   15.52400m -166.3282m 
   15.52800m -168.8235m 
   15.53200m -171.3188m 
   15.53600m -173.8140m 
   15.54000m -176.3093m 
   15.54400m -178.8046m 
   15.54800m -181.2999m 
   15.55200m -183.7952m 
   15.55600m -186.2905m 
   15.56000m -188.7858m 
   15.56400m -191.2811m 
   15.56800m -193.7764m 
   15.57200m -196.2717m 
   15.57600m -198.7669m 
   15.58000m -201.2622m 
   15.58400m -203.7575m 
   15.58800m -206.2528m 
   15.59200m -208.7481m 
   15.59600m -211.2434m 
   15.60000m -213.7387m 
   15.60400m -216.2340m 
   15.60800m -218.7293m 
   15.61200m -221.2246m 
   15.61600m -223.7198m 
   15.62000m -226.2151m 
   15.62400m -228.7104m 
   15.62800m -231.2057m 
   15.63200m -233.7010m 
   15.63600m -236.1963m 
   15.64000m -238.6916m 
   15.64400m -241.1869m 
   15.64800m -243.6822m 
   15.65200m -246.1775m 
   15.65600m -248.6728m 
   15.66000m -251.1680m 
   15.66400m -253.6633m 
   15.66800m -256.1586m 
   15.67200m -258.6539m 
   15.67600m -261.1492m 
   15.68000m -263.6445m 
   15.68400m -266.1398m 
   15.68800m -268.6351m 
   15.69200m -271.1304m 
   15.69600m -273.6257m 
   15.70000m -276.1209m 
   15.70400m -278.6162m 
   15.70800m -281.1115m 
   15.71200m -283.6068m 
   15.71600m -286.1021m 
   15.72000m -288.5974m 
   15.72400m -291.0927m 
   15.72800m -293.5880m 
   15.73200m -296.0833m 
   15.73600m -298.5786m 
   15.74000m -301.0738m 
   15.74400m -303.5691m 
   15.74800m -306.0644m 
   15.75200m -308.5597m 
   15.75600m -311.0550m 
   15.76000m -313.5503m 
   15.76400m -316.0456m 
   15.76800m -318.5409m 
   15.77200m -321.0362m 
   15.77600m -323.5315m 
   15.78000m -325.9596m 
   15.78400m -328.3839m 
   15.78800m -330.8082m 
   15.79200m -333.2324m 
   15.79600m -335.6567m 
   15.80000m -338.0810m 
   15.80400m -340.5053m 
   15.80800m -342.9295m 
   15.81200m -345.3538m 
   15.81600m -347.7781m 
   15.82000m -350.2024m 
   15.82400m -352.6267m 
   15.82800m -355.0509m 
   15.83200m -357.4752m 
   15.83600m -359.8995m 
   15.84000m -362.3238m 
   15.84400m -364.7480m 
   15.84800m -367.1723m 
   15.85200m -369.5966m 
   15.85600m -372.0209m 
   15.86000m -374.4451m 
   15.86400m -376.8694m 
   15.86800m -379.1676m 
   15.87200m -381.4655m 
   15.87600m -383.7634m 
   15.88000m -386.0613m 
   15.88400m -388.3592m 
   15.88800m -390.6571m 
   15.89200m -392.9550m 
   15.89600m -395.2529m 
   15.90000m -397.5508m 
   15.90400m -399.8487m 
   15.90800m -402.1466m 
   15.91200m -404.4446m 
   15.91600m -406.7425m 
   15.92000m -409.0404m 
   15.92400m -411.3383m 
   15.92800m -413.6362m 
   15.93200m -415.9341m 
   15.93600m -418.2320m 
   15.94000m -420.5299m 
   15.94400m -422.8278m 
   15.94800m -425.1257m 
   15.95200m -427.4236m 
   15.95600m -429.7215m 
   15.96000m -432.0194m 
   15.96400m -434.3173m 
   15.96800m -436.6152m 
   15.97200m -438.9131m 
   15.97600m -441.2110m 
   15.98000m -443.5089m 
   15.98400m -445.8068m 
   15.98800m -448.1048m 
   15.99200m -450.4027m 
   15.99600m -452.7006m 
   16.00000m -454.9985m 
   16.00400m -457.2964m 
   16.00800m -459.5943m 
   16.01200m -461.8922m 
   16.01600m -464.1901m 
   16.02000m -466.4880m 
   16.02400m -468.7859m 
   16.02800m -471.0838m 
   16.03200m -473.3817m 
   16.03600m -475.6796m 
   16.04000m -477.9775m 
   16.04400m -480.2754m 
   16.04800m -482.5733m 
   16.05200m -484.8712m 
   16.05600m -487.1691m 
   16.06000m -489.4670m 
   16.06400m -491.7649m 
   16.06800m -494.0629m 
   16.07200m -496.3608m 
   16.07600m -498.6587m 
   16.08000m -500.9566m 
   16.08400m -503.2545m 
   16.08800m -505.5524m 
   16.09200m -507.8503m 
   16.09600m -510.1482m 
   16.10000m -512.4461m 
   16.10400m -514.7440m 
   16.10800m -517.0419m 
   16.11200m -519.3398m 
   16.11600m -521.6377m 
   16.12000m -523.9356m 
   16.12400m -526.2335m 
   16.12800m -528.5314m 
   16.13200m -530.8293m 
   16.13600m -533.1272m 
   16.14000m -535.4251m 
   16.14400m -537.7230m 
   16.14800m -539.9130m 
   16.15200m -542.0698m 
   16.15600m -544.2266m 
   16.16000m -546.3834m 
   16.16400m -548.5403m 
   16.16800m -550.6971m 
   16.17200m -552.8539m 
   16.17600m -555.0107m 
   16.18000m -557.1676m 
   16.18400m -559.3244m 
   16.18800m -561.4812m 
   16.19200m -563.6380m 
   16.19600m -565.7949m 
   16.20000m -567.9517m 
   16.20400m -570.1085m 
   16.20800m -572.2653m 
   16.21200m -574.4222m 
   16.21600m -576.5790m 
   16.22000m -578.7358m 
   16.22400m -580.8926m 
   16.22800m -583.0495m 
   16.23200m -585.2063m 
   16.23600m -587.2619m 
   16.24000m -589.2426m 
   16.24400m -591.2232m 
   16.24800m -593.2038m 
   16.25200m -595.1844m 
   16.25600m -597.1650m 
   16.26000m -599.1456m 
   16.26400m -601.1262m 
   16.26800m -603.1068m 
   16.27200m -605.0874m 
   16.27600m -607.0680m 
   16.28000m -609.0486m 
   16.28400m -611.0292m 
   16.28800m -613.0098m 
   16.29200m -614.9904m 
   16.29600m -616.9710m 
   16.30000m -618.9516m 
   16.30400m -620.9322m 
   16.30800m -622.9128m 
   16.31200m -624.8934m 
   16.31600m -626.8740m 
   16.32000m -628.8546m 
   16.32400m -630.8352m 
   16.32800m -632.8158m 
   16.33200m -634.7964m 
   16.33600m -636.7770m 
   16.34000m -638.7576m 
   16.34400m -640.7382m 
   16.34800m -642.7188m 
   16.35200m -644.6994m 
   16.35600m -646.6801m 
   16.36000m -648.6607m 
   16.36400m -650.6413m 
   16.36800m -652.6219m 
   16.37200m -654.6025m 
   16.37600m -656.5831m 
   16.38000m -658.5637m 
   16.38400m -660.5443m 
   16.38800m -662.5249m 
   16.39200m -664.5055m 
   16.39600m -666.4861m 
   16.40000m -668.4667m 
   16.40400m -670.4473m 
   16.40800m -672.4279m 
   16.41200m -674.4085m 
   16.41600m -676.3891m 
   16.42000m -678.3697m 
   16.42400m -680.3503m 
   16.42800m -682.3309m 
   16.43200m -684.3115m 
   16.43600m -686.2921m 
   16.44000m -688.2727m 
   16.44400m -690.2533m 
   16.44800m -692.2339m 
   16.45200m -694.2145m 
   16.45600m -696.1951m 
   16.46000m -698.1757m 
   16.46400m -700.1563m 
   16.46800m -702.1370m 
   16.47200m -704.1176m 
   16.47600m -706.0982m 
   16.48000m -708.0788m 
   16.48400m -710.0594m 
   16.48800m -712.0400m 
   16.49200m -714.0206m 
   16.49600m -716.0012m 
   16.50000m -717.9818m 
   16.50400m -719.6064m 
   16.50800m -721.2309m 
   16.51200m -722.8555m 
   16.51600m -724.4801m 
   16.52000m -726.1046m 
   16.52400m -727.7292m 
   16.52800m -729.3538m 
   16.53200m -730.9784m 
   16.53600m -732.6029m 
   16.54000m -734.2275m 
   16.54400m -735.8521m 
   16.54800m -737.4766m 
   16.55200m -739.1012m 
   16.55600m -740.7258m 
   16.56000m -742.3504m 
   16.56400m -743.9749m 
   16.56800m -745.5995m 
   16.57200m -747.2241m 
   16.57600m -748.8487m 
   16.58000m -750.4732m 
   16.58400m -752.0978m 
   16.58800m -753.7224m 
   16.59200m -755.3469m 
   16.59600m -756.9715m 
   16.60000m -758.5961m 
   16.60400m -760.2207m 
   16.60800m -761.8452m 
   16.61200m -763.4698m 
   16.61600m -765.0944m 
   16.62000m -766.7190m 
   16.62400m -768.3435m 
   16.62800m -769.9681m 
   16.63200m -771.5927m 
   16.63600m -773.2172m 
   16.64000m -774.8418m 
   16.64400m -776.4664m 
   16.64800m -778.0910m 
   16.65200m -779.7155m 
   16.65600m -781.3401m 
   16.66000m -782.9647m 
   16.66400m -784.5892m 
   16.66800m -786.2138m 
   16.67200m -787.8384m 
   16.67600m -789.4630m 
   16.68000m -791.0875m 
   16.68400m -792.7121m 
   16.68800m -794.3367m 
   16.69200m -795.9374m 
   16.69600m -797.5257m 
   16.70000m -799.1140m 
   16.70400m -800.7023m 
   16.70800m -802.2907m 
   16.71200m -803.8790m 
   16.71600m -805.4673m 
   16.72000m -807.0556m 
   16.72400m -808.6439m 
   16.72800m -810.2322m 
   16.73200m -811.8205m 
   16.73600m -813.4088m 
   16.74000m -814.9972m 
   16.74400m -816.5855m 
   16.74800m -818.1738m 
   16.75200m -819.7621m 
   16.75600m -821.1990m 
   16.76000m -822.6291m 
   16.76400m -824.0592m 
   16.76800m -825.4893m 
   16.77200m -826.9194m 
   16.77600m -828.3495m 
   16.78000m -829.7796m 
   16.78400m -831.2097m 
   16.78800m -832.6398m 
   16.79200m -834.0698m 
   16.79600m -835.4999m 
   16.80000m -836.9300m 
   16.80400m -838.3601m 
   16.80800m -839.7902m 
   16.81200m -841.2203m 
   16.81600m -842.6504m 
   16.82000m -844.0805m 
   16.82400m -845.5106m 
   16.82800m -846.9407m 
   16.83200m -848.3708m 
   16.83600m -849.8009m 
   16.84000m -851.2310m 
   16.84400m -852.6611m 
   16.84800m -854.0912m 
   16.85200m -855.5213m 
   16.85600m -856.9514m 
   16.86000m -858.3815m 
   16.86400m -859.8116m 
   16.86800m -861.2417m 
   16.87200m -862.6718m 
   16.87600m -864.1019m 
   16.88000m -865.5320m 
   16.88400m -866.9621m 
   16.88800m -868.3922m 
   16.89200m -869.8223m 
   16.89600m -871.2524m 
   16.90000m -872.6825m 
   16.90400m -874.1126m 
   16.90800m -875.5427m 
   16.91200m -876.9728m 
   16.91600m -878.4029m 
   16.92000m -879.8330m 
   16.92400m -881.2631m 
   16.92800m -882.6932m 
   16.93200m -884.1233m 
   16.93600m -885.5534m 
   16.94000m -886.9835m 
   16.94400m -888.4136m 
   16.94800m -889.8437m 
   16.95200m -891.2738m 
   16.95600m -892.5060m 
   16.96000m -893.6593m 
   16.96400m -894.8127m 
   16.96800m -895.9661m 
   16.97200m -897.1194m 
   16.97600m -898.2728m 
   16.98000m -899.4262m 
   16.98400m -900.5795m 
   16.98800m -901.7329m 
   16.99200m -902.8863m 
   16.99600m -904.0396m 
   17.00000m -905.1930m 
   17.00400m -906.3464m 
   17.00800m -907.4998m 
   17.01200m -908.6531m 
   17.01600m -909.8065m 
   17.02000m -910.9599m 
   17.02400m -912.1132m 
   17.02800m -913.2666m 
   17.03200m -914.4200m 
   17.03600m -915.5733m 
   17.04000m -916.7267m 
   17.04400m -917.8801m 
   17.04800m -919.0334m 
   17.05200m -920.1868m 
   17.05600m -921.3402m 
   17.06000m -922.4936m 
   17.06400m -923.6469m 
   17.06800m -924.8003m 
   17.07200m -925.9537m 
   17.07600m -927.1070m 
   17.08000m -928.2604m 
   17.08400m -929.4138m 
   17.08800m -930.5671m 
   17.09200m -931.7205m 
   17.09600m -932.8739m 
   17.10000m -934.0272m 
   17.10400m -935.1806m 
   17.10800m -936.3340m 
   17.11200m -937.4874m 
   17.11600m -938.6407m 
   17.12000m -939.7941m 
   17.12400m -940.9475m 
   17.12800m -942.1008m 
   17.13200m -943.2542m 
   17.13600m -944.4076m 
   17.14000m -945.5609m 
   17.14400m -946.7143m 
   17.14800m -947.8677m 
   17.15200m -949.0210m 
   17.15600m -950.1744m 
   17.16000m -951.3278m 
   17.16400m -952.4812m 
   17.16800m -953.4291m 
   17.17200m -954.3553m 
   17.17600m -955.2816m 
   17.18000m -956.2078m 
   17.18400m -957.1341m 
   17.18800m -958.0604m 
   17.19200m -958.9866m 
   17.19600m -959.9129m 
   17.20000m -960.8391m 
   17.20400m -961.7654m 
   17.20800m -962.6916m 
   17.21200m -963.6179m 
   17.21600m -964.5441m 
   17.22000m -965.4704m 
   17.22400m -966.3967m 
   17.22800m -967.3229m 
   17.23200m -968.2492m 
   17.23600m -969.1754m 
   17.24000m -970.1017m 
   17.24400m -971.0279m 
   17.24800m -971.9542m 
   17.25200m -972.6117m 
   17.25600m -973.2485m 
   17.26000m -973.8853m 
   17.26400m -974.5221m 
   17.26800m -975.1589m 
   17.27200m -975.7957m 
   17.27600m -976.4325m 
   17.28000m -977.0693m 
   17.28400m -977.7061m 
   17.28800m -978.3429m 
   17.29200m -978.9798m 
   17.29600m -979.6166m 
   17.30000m -980.2534m 
   17.30400m -980.8902m 
   17.30800m -981.5270m 
   17.31200m -982.1638m 
   17.31600m -982.8006m 
   17.32000m -983.4374m 
   17.32400m -984.0742m 
   17.32800m -984.7110m 
   17.33200m -985.3478m 
   17.33600m -985.9846m 
   17.34000m -986.6214m 
   17.34400m -987.2582m 
   17.34800m -987.8950m 
   17.35200m -988.5318m 
   17.35600m -989.1686m 
   17.36000m -989.8054m 
   17.36400m -990.4422m 
   17.36800m -991.0791m 
   17.37200m -991.7159m 
   17.37600m -992.3527m 
   17.38000m -992.9895m 
   17.38400m -993.6263m 
   17.38800m -994.2631m 
   17.39200m -994.8999m 
   17.39600m -995.5367m 
   17.40000m -996.1735m 
   17.40400m -996.8103m 
   17.40800m -997.4471m 
   17.41200m -998.0839m 
   17.41600m -998.7207m 
   17.42000m -999.3575m 
   17.42400m -999.9943m 
   17.42800m   -1.0006  
   17.43200m   -1.0013  
   17.43600m   -1.0019  
   17.44000m   -1.0025  
   17.44400m   -1.0032  
   17.44800m   -1.0038  
   17.45200m   -1.0045  
   17.45600m   -1.0051  
   17.46000m   -1.0057  
   17.46400m   -1.0064  
   17.46800m   -1.0070  
   17.47200m   -1.0076  
   17.47600m   -1.0083  
   17.48000m   -1.0089  
   17.48400m   -1.0095  
   17.48800m   -1.0102  
   17.49200m   -1.0108  
   17.49600m   -1.0115  
   17.50000m   -1.0121  
   17.50400m   -1.0122  
   17.50800m   -1.0123  
   17.51200m   -1.0125  
   17.51600m   -1.0126  
   17.52000m   -1.0127  
   17.52400m   -1.0128  
   17.52800m   -1.0129  
   17.53200m   -1.0131  
   17.53600m   -1.0132  
   17.54000m   -1.0133  
   17.54400m   -1.0134  
   17.54800m   -1.0136  
   17.55200m   -1.0137  
   17.55600m   -1.0138  
   17.56000m   -1.0139  
   17.56400m   -1.0141  
   17.56800m   -1.0142  
   17.57200m   -1.0143  
   17.57600m   -1.0144  
   17.58000m   -1.0145  
   17.58400m   -1.0147  
   17.58800m   -1.0148  
   17.59200m   -1.0149  
   17.59600m   -1.0150  
   17.60000m   -1.0152  
   17.60400m   -1.0153  
   17.60800m   -1.0154  
   17.61200m   -1.0155  
   17.61600m   -1.0156  
   17.62000m   -1.0158  
   17.62400m   -1.0159  
   17.62800m   -1.0160  
   17.63200m   -1.0161  
   17.63600m   -1.0163  
   17.64000m   -1.0164  
   17.64400m   -1.0165  
   17.64800m   -1.0166  
   17.65200m   -1.0167  
   17.65600m   -1.0169  
   17.66000m   -1.0170  
   17.66400m   -1.0171  
   17.66800m   -1.0172  
   17.67200m   -1.0174  
   17.67600m   -1.0175  
   17.68000m   -1.0176  
   17.68400m   -1.0177  
   17.68800m   -1.0178  
   17.69200m   -1.0180  
   17.69600m   -1.0181  
   17.70000m   -1.0182  
   17.70400m   -1.0183  
   17.70800m   -1.0184  
   17.71200m   -1.0185  
   17.71600m   -1.0186  
   17.72000m   -1.0187  
   17.72400m   -1.0187  
   17.72800m   -1.0188  
   17.73200m   -1.0189  
   17.73600m   -1.0190  
   17.74000m   -1.0191  
   17.74400m   -1.0192  
   17.74800m   -1.0193  
   17.75200m   -1.0193  
   17.75600m   -1.0193  
   17.76000m   -1.0192  
   17.76400m   -1.0192  
   17.76800m   -1.0191  
   17.77200m   -1.0190  
   17.77600m   -1.0190  
   17.78000m   -1.0189  
   17.78400m   -1.0188  
   17.78800m   -1.0188  
   17.79200m   -1.0187  
   17.79600m   -1.0186  
   17.80000m   -1.0186  
   17.80400m   -1.0185  
   17.80800m   -1.0184  
   17.81200m   -1.0184  
   17.81600m   -1.0183  
   17.82000m   -1.0182  
   17.82400m   -1.0182  
   17.82800m   -1.0181  
   17.83200m   -1.0180  
   17.83600m   -1.0180  
   17.84000m   -1.0179  
   17.84400m   -1.0178  
   17.84800m   -1.0178  
   17.85200m   -1.0177  
   17.85600m   -1.0176  
   17.86000m   -1.0176  
   17.86400m   -1.0175  
   17.86800m   -1.0174  
   17.87200m   -1.0174  
   17.87600m   -1.0173  
   17.88000m   -1.0172  
   17.88400m   -1.0172  
   17.88800m   -1.0171  
   17.89200m   -1.0170  
   17.89600m   -1.0170  
   17.90000m   -1.0169  
   17.90400m   -1.0168  
   17.90800m   -1.0168  
   17.91200m   -1.0167  
   17.91600m   -1.0165  
   17.92000m   -1.0162  
   17.92400m   -1.0158  
   17.92800m   -1.0155  
   17.93200m   -1.0152  
   17.93600m   -1.0148  
   17.94000m   -1.0145  
   17.94400m   -1.0141  
   17.94800m   -1.0138  
   17.95200m   -1.0134  
   17.95600m   -1.0131  
   17.96000m   -1.0127  
   17.96400m   -1.0124  
   17.96800m   -1.0120  
   17.97200m   -1.0117  
   17.97600m   -1.0113  
   17.98000m   -1.0110  
   17.98400m   -1.0107  
   17.98800m   -1.0103  
   17.99200m   -1.0100  
   17.99600m   -1.0096  
   18.00000m   -1.0093  
   18.00400m   -1.0089  
   18.00800m   -1.0086  
   18.01200m   -1.0082  
   18.01600m   -1.0079  
   18.02000m   -1.0075  
   18.02400m   -1.0072  
   18.02800m   -1.0069  
   18.03200m   -1.0065  
   18.03600m   -1.0062  
   18.04000m   -1.0058  
   18.04400m   -1.0055  
   18.04800m   -1.0051  
   18.05200m   -1.0048  
   18.05600m   -1.0044  
   18.06000m   -1.0041  
   18.06400m   -1.0037  
   18.06800m   -1.0034  
   18.07200m   -1.0031  
   18.07600m   -1.0027  
   18.08000m   -1.0024  
   18.08400m   -1.0020  
   18.08800m   -1.0017  
   18.09200m   -1.0013  
   18.09600m   -1.0010  
   18.10000m   -1.0006  
   18.10400m   -1.0003  
   18.10800m -999.9491m 
   18.11200m -999.6037m 
   18.11600m -999.2582m 
   18.12000m -998.8314m 
   18.12400m -998.2382m 
   18.12800m -997.6449m 
   18.13200m -997.0517m 
   18.13600m -996.4584m 
   18.14000m -995.8652m 
   18.14400m -995.2719m 
   18.14800m -994.6787m 
   18.15200m -994.0855m 
   18.15600m -993.4922m 
   18.16000m -992.8990m 
   18.16400m -992.3057m 
   18.16800m -991.7125m 
   18.17200m -991.1192m 
   18.17600m -990.5260m 
   18.18000m -989.9327m 
   18.18400m -989.3395m 
   18.18800m -988.7462m 
   18.19200m -988.1530m 
   18.19600m -987.5597m 
   18.20000m -986.9665m 
   18.20400m -986.3732m 
   18.20800m -985.7800m 
   18.21200m -985.1867m 
   18.21600m -984.4315m 
   18.22000m -983.5116m 
   18.22400m -982.5918m 
   18.22800m -981.6719m 
   18.23200m -980.7520m 
   18.23600m -979.8322m 
   18.24000m -978.9123m 
   18.24400m -977.9925m 
   18.24800m -977.0726m 
   18.25200m -976.1527m 
   18.25600m -975.2329m 
   18.26000m -974.3130m 
   18.26400m -973.3932m 
   18.26800m -972.4733m 
   18.27200m -971.5534m 
   18.27600m -970.6336m 
   18.28000m -969.7137m 
   18.28400m -968.7939m 
   18.28800m -967.8740m 
   18.29200m -966.9541m 
   18.29600m -966.0343m 
   18.30000m -965.1144m 
   18.30400m -964.1946m 
   18.30800m -963.2747m 
   18.31200m -962.3548m 
   18.31600m -961.4350m 
   18.32000m -960.5151m 
   18.32400m -959.5953m 
   18.32800m -958.6754m 
   18.33200m -957.7555m 
   18.33600m -956.8357m 
   18.34000m -955.9158m 
   18.34400m -954.9960m 
   18.34800m -954.0761m 
   18.35200m -953.1562m 
   18.35600m -952.2364m 
   18.36000m -951.3165m 
   18.36400m -950.3967m 
   18.36800m -949.4768m 
   18.37200m -948.5569m 
   18.37600m -947.6371m 
   18.38000m -946.7172m 
   18.38400m -945.7974m 
   18.38800m -944.8775m 
   18.39200m -943.9576m 
   18.39600m -943.0378m 
   18.40000m -942.1179m 
   18.40400m -941.1981m 
   18.40800m -940.2782m 
   18.41200m -939.3583m 
   18.41600m -938.4385m 
   18.42000m -937.5186m 
   18.42400m -936.5988m 
   18.42800m -935.6789m 
   18.43200m -934.7590m 
   18.43600m -933.8392m 
   18.44000m -932.9193m 
   18.44400m -931.9995m 
   18.44800m -931.0796m 
   18.45200m -930.1597m 
   18.45600m -929.2399m 
   18.46000m -928.3200m 
   18.46400m -927.4002m 
   18.46800m -926.4803m 
   18.47200m -925.5604m 
   18.47600m -924.6406m 
   18.48000m -923.7207m 
   18.48400m -922.8009m 
   18.48800m -921.8810m 
   18.49200m -920.9611m 
   18.49600m -920.0413m 
   18.50000m -919.1214m 
   18.50400m -917.7439m 
   18.50800m -916.3664m 
   18.51200m -914.9889m 
   18.51600m -913.6113m 
   18.52000m -912.2338m 
   18.52400m -910.8563m 
   18.52800m -909.4788m 
   18.53200m -908.1013m 
   18.53600m -906.7237m 
   18.54000m -905.3462m 
   18.54400m -903.9687m 
   18.54800m -902.5912m 
   18.55200m -901.2137m 
   18.55600m -899.8361m 
   18.56000m -898.4586m 
   18.56400m -897.0811m 
   18.56800m -895.7036m 
   18.57200m -894.3261m 
   18.57600m -892.9485m 
   18.58000m -891.5710m 
   18.58400m -890.1935m 
   18.58800m -888.8160m 
   18.59200m -887.4385m 
   18.59600m -886.0610m 
   18.60000m -884.6834m 
   18.60400m -883.3059m 
   18.60800m -881.9284m 
   18.61200m -880.5509m 
   18.61600m -879.1734m 
   18.62000m -877.7958m 
   18.62400m -876.4183m 
   18.62800m -875.0408m 
   18.63200m -873.6633m 
   18.63600m -872.2858m 
   18.64000m -870.9082m 
   18.64400m -869.5307m 
   18.64800m -868.1532m 
   18.65200m -866.7757m 
   18.65600m -865.3982m 
   18.66000m -864.0206m 
   18.66400m -862.6431m 
   18.66800m -861.2656m 
   18.67200m -859.8645m 
   18.67600m -858.4507m 
   18.68000m -857.0368m 
   18.68400m -855.6230m 
   18.68800m -854.2092m 
   18.69200m -852.7953m 
   18.69600m -851.3815m 
   18.70000m -849.9676m 
   18.70400m -848.5538m 
   18.70800m -847.1399m 
   18.71200m -845.7261m 
   18.71600m -844.3122m 
   18.72000m -842.8984m 
   18.72400m -841.4845m 
   18.72800m -840.0627m 
   18.73200m -838.5019m 
   18.73600m -836.9410m 
   18.74000m -835.3802m 
   18.74400m -833.8194m 
   18.74800m -832.2586m 
   18.75200m -830.6978m 
   18.75600m -829.1369m 
   18.76000m -827.5761m 
   18.76400m -826.0153m 
   18.76800m -824.4545m 
   18.77200m -822.8936m 
   18.77600m -821.3328m 
   18.78000m -819.7720m 
   18.78400m -818.2112m 
   18.78800m -816.6504m 
   18.79200m -815.0895m 
   18.79600m -813.5287m 
   18.80000m -811.9679m 
   18.80400m -810.4071m 
   18.80800m -808.8462m 
   18.81200m -807.2854m 
   18.81600m -805.7246m 
   18.82000m -804.1638m 
   18.82400m -802.6030m 
   18.82800m -801.0421m 
   18.83200m -799.4813m 
   18.83600m -797.9205m 
   18.84000m -796.3597m 
   18.84400m -794.7988m 
   18.84800m -793.2380m 
   18.85200m -791.6772m 
   18.85600m -790.1164m 
   18.86000m -788.5556m 
   18.86400m -786.9947m 
   18.86800m -785.4339m 
   18.87200m -783.8731m 
   18.87600m -782.3123m 
   18.88000m -780.7514m 
   18.88400m -779.1906m 
   18.88800m -777.6298m 
   18.89200m -776.0690m 
   18.89600m -774.5082m 
   18.90000m -772.9473m 
   18.90400m -771.3865m 
   18.90800m -769.8257m 
   18.91200m -768.2649m 
   18.91600m -766.6184m 
   18.92000m -764.8159m 
   18.92400m -763.0134m 
   18.92800m -761.2109m 
   18.93200m -759.4084m 
   18.93600m -757.6059m 
   18.94000m -755.8034m 
   18.94400m -754.0009m 
   18.94800m -752.1984m 
   18.95200m -750.3959m 
   18.95600m -748.5934m 
   18.96000m -746.7909m 
   18.96400m -744.9884m 
   18.96800m -743.1859m 
   18.97200m -741.3834m 
   18.97600m -739.5809m 
   18.98000m -737.7785m 
   18.98400m -735.9760m 
   18.98800m -734.1735m 
   18.99200m -732.3710m 
   18.99600m -730.5685m 
   19.00000m -728.7660m 
   19.00400m -726.9635m 
   19.00800m -725.1610m 
   19.01200m -723.3585m 
   19.01600m -721.5560m 
   19.02000m -719.7535m 
   19.02400m -717.9510m 
   19.02800m -716.1485m 
   19.03200m -714.3460m 
   19.03600m -712.5435m 
   19.04000m -710.7410m 
   19.04400m -708.9385m 
   19.04800m -707.1360m 
   19.05200m -705.3335m 
   19.05600m -703.5310m 
   19.06000m -701.7285m 
   19.06400m -699.9260m 
   19.06800m -698.1235m 
   19.07200m -696.3210m 
   19.07600m -694.5185m 
   19.08000m -692.7160m 
   19.08400m -690.9135m 
   19.08800m -689.1110m 
   19.09200m -687.3085m 
   19.09600m -685.5060m 
   19.10000m -683.7035m 
   19.10400m -681.9010m 
   19.10800m -680.0985m 
   19.11200m -678.2960m 
   19.11600m -676.4935m 
   19.12000m -674.6910m 
   19.12400m -672.8885m 
   19.12800m -671.0860m 
   19.13200m -669.2835m 
   19.13600m -667.4810m 
   19.14000m -665.5565m 
   19.14400m -663.5699m 
   19.14800m -661.5833m 
   19.15200m -659.5967m 
   19.15600m -657.6101m 
   19.16000m -655.6236m 
   19.16400m -653.6370m 
   19.16800m -651.6504m 
   19.17200m -649.6638m 
   19.17600m -647.6772m 
   19.18000m -645.6906m 
   19.18400m -643.7041m 
   19.18800m -641.7175m 
   19.19200m -639.7309m 
   19.19600m -637.7443m 
   19.20000m -635.7577m 
   19.20400m -633.7711m 
   19.20800m -631.7846m 
   19.21200m -629.7980m 
   19.21600m -627.8114m 
   19.22000m -625.8248m 
   19.22400m -623.8382m 
   19.22800m -621.8490m 
   19.23200m -619.6743m 
   19.23600m -617.4996m 
   19.24000m -615.3249m 
   19.24400m -613.1502m 
   19.24800m -610.9756m 
   19.25200m -608.8009m 
   19.25600m -606.6262m 
   19.26000m -604.4515m 
   19.26400m -602.2768m 
   19.26800m -600.1022m 
   19.27200m -597.9275m 
   19.27600m -595.7528m 
   19.28000m -593.5781m 
   19.28400m -591.4034m 
   19.28800m -589.2288m 
   19.29200m -587.0541m 
   19.29600m -584.8794m 
   19.30000m -582.7047m 
   19.30400m -580.5300m 
   19.30800m -578.3553m 
   19.31200m -576.1807m 
   19.31600m -574.0060m 
   19.32000m -571.8313m 
   19.32400m -569.6566m 
   19.32800m -567.4819m 
   19.33200m -565.3073m 
   19.33600m -563.1326m 
   19.34000m -560.9579m 
   19.34400m -558.7832m 
   19.34800m -556.6085m 
   19.35200m -554.4339m 
   19.35600m -552.2592m 
   19.36000m -550.0845m 
   19.36400m -547.9098m 
   19.36800m -545.7351m 
   19.37200m -543.5605m 
   19.37600m -541.3858m 
   19.38000m -539.2111m 
   19.38400m -537.0364m 
   19.38800m -534.8617m 
   19.39200m -532.6870m 
   19.39600m -530.5124m 
   19.40000m -528.3377m 
   19.40400m -526.1630m 
   19.40800m -523.9883m 
   19.41200m -521.8136m 
   19.41600m -519.6390m 
   19.42000m -517.4643m 
   19.42400m -515.2896m 
   19.42800m -513.1149m 
   19.43200m -510.9402m 
   19.43600m -508.7656m 
   19.44000m -506.5909m 
   19.44400m -504.4162m 
   19.44800m -502.2415m 
   19.45200m -500.0668m 
   19.45600m -497.8922m 
   19.46000m -495.7175m 
   19.46400m -493.5428m 
   19.46800m -491.3681m 
   19.47200m -489.1934m 
   19.47600m -487.0187m 
   19.48000m -484.8441m 
   19.48400m -482.6694m 
   19.48800m -480.4947m 
   19.49200m -478.3200m 
   19.49600m -476.1453m 
   19.50000m -473.9707m 
   19.50400m -471.7960m 
   19.50800m -469.6213m 
   19.51200m -467.4466m 
   19.51600m -465.2719m 
   19.52000m -463.0094m 
   19.52400m -460.6712m 
   19.52800m -458.3330m 
   19.53200m -455.9949m 
   19.53600m -453.6567m 
   19.54000m -451.3185m 
   19.54400m -448.9803m 
   19.54800m -446.6422m 
   19.55200m -444.3040m 
   19.55600m -441.9658m 
   19.56000m -439.6276m 
   19.56400m -437.2894m 
   19.56800m -434.9513m 
   19.57200m -432.6131m 
   19.57600m -430.2749m 
   19.58000m -427.9367m 
   19.58400m -425.5986m 
   19.58800m -423.2604m 
   19.59200m -420.9222m 
   19.59600m -418.5840m 
   19.60000m -416.2459m 
   19.60400m -413.9077m 
   19.60800m -411.4994m 
   19.61200m -409.0611m 
   19.61600m -406.6227m 
   19.62000m -404.1844m 
   19.62400m -401.7460m 
   19.62800m -399.3077m 
   19.63200m -396.8693m 
   19.63600m -394.4310m 
   19.64000m -391.9926m 
   19.64400m -389.5543m 
   19.64800m -387.1159m 
   19.65200m -384.6775m 
   19.65600m -382.2392m 
   19.66000m -379.8008m 
   19.66400m -377.3625m 
   19.66800m -374.9241m 
   19.67200m -372.4858m 
   19.67600m -370.0474m 
   19.68000m -367.6091m 
   19.68400m -365.1707m 
   19.68800m -362.7324m 
   19.69200m -360.2940m 
   19.69600m -357.8556m 
   19.70000m -355.4173m 
   19.70400m -352.9789m 
   19.70800m -350.5406m 
   19.71200m -348.1022m 
   19.71600m -345.6639m 
   19.72000m -343.2255m 
   19.72400m -340.7872m 
   19.72800m -338.3488m 
   19.73200m -335.9105m 
   19.73600m -333.4721m 
   19.74000m -331.0338m 
   19.74400m -328.5954m 
   19.74800m -326.1570m 
   19.75200m -323.7187m 
   19.75600m -321.2803m 
   19.76000m -318.8420m 
   19.76400m -316.4036m 
   19.76800m -313.9653m 
   19.77200m -311.5269m 
   19.77600m -309.0886m 
   19.78000m -306.6502m 
   19.78400m -304.2119m 
   19.78800m -301.7735m 
   19.79200m -299.3351m 
   19.79600m -296.8968m 
   19.80000m -294.4584m 
   19.80400m -292.0201m 
   19.80800m -289.5817m 
   19.81200m -287.1434m 
   19.81600m -284.7050m 
   19.82000m -282.2667m 
   19.82400m -279.8283m 
   19.82800m -277.3900m 
   19.83200m -274.9516m 
   19.83600m -272.5132m 
   19.84000m -270.0749m 
   19.84400m -267.6365m 
   19.84800m -265.1982m 
   19.85200m -262.7598m 
   19.85600m -260.3215m 
   19.86000m -257.8831m 
   19.86400m -255.4448m 
   19.86800m -253.0064m 
   19.87200m -250.5681m 
   19.87600m -248.1297m 
   19.88000m -245.6913m 
   19.88400m -243.2530m 
   19.88800m -240.7376m 
   19.89200m -238.2051m 
   19.89600m -235.6725m 
   19.90000m -233.1400m 
   19.90400m -230.6074m 
   19.90800m -228.0749m 
   19.91200m -225.5423m 
   19.91600m -223.0098m 
   19.92000m -220.4772m 
   19.92400m -217.9447m 
   19.92800m -215.4121m 
   19.93200m -212.8795m 
   19.93600m -210.3470m 
   19.94000m -207.8144m 
   19.94400m -205.2819m 
   19.94800m -202.7493m 
   19.95200m -200.2168m 
   19.95600m -197.6842m 
   19.96000m -195.1517m 
   19.96400m -192.6191m 
   19.96800m -190.0866m 
   19.97200m -187.5540m 
   19.97600m -185.0214m 
   19.98000m -182.4889m 
   19.98400m -179.9563m 
   19.98800m -177.4238m 
   19.99200m -174.8912m 
   19.99600m -172.3587m 
   20.00000m -169.8261m 
y

          ***** job concluded
 ******  
 * example rlc-3

 ****** job statistics summary tnom=  25.000 temp=  25.000 ******

  ******  HSPICE Threads Information  ******

  Command Line Threads Count :     1
  Available CPU Count        :     8
  Actual Threads Count       :     1


  ******  Circuit Statistics  ******
  # nodes       =       8 # elements   =      11
  # resistors   =       3 # capacitors =       4 # inductors   =       3
  # mutual_inds =       0 # vccs       =       0 # vcvs        =       0
  # cccs        =       0 # ccvs       =       0 # volt_srcs   =       1
  # curr_srcs   =       0 # diodes     =       0 # bjts        =       0
  # jfets       =       0 # mosfets    =       0 # U elements  =       0
  # T elements  =       0 # W elements =       0 # B elements  =       0
  # S elements  =       0 # P elements =       0 # va device   =       0
  # vector_srcs =       0 # N elements =       0


  ******  Runtime Statistics (seconds)  ******

  analysis           time    # points   tot. iter  conv.iter
  op point           0.10           1           4
  transient          0.00        2501         336         168 rev=        34
  readin             0.59
  errchk             0.00
  setup              0.00
  output             0.00


           peak memory used         72.02 megabytes
           total cpu time            1.06 seconds
           total elapsed time        2.17 seconds
           job started at     18:19:15 12/06/2022
           job ended   at     18:19:17 12/06/2022
           job total runtime         2.17 seconds


  lic: Release hspice token(s) 
 lic: total license checkout elapse time:        1.09(s)
