 ****** HSPICE -- P-2019.06-SP1-1 win64 (Sep 27 2019) ******                    
  Copyright (c) 1986 - 2022 by Synopsys, Inc. All Rights Reserved.              
  This software and the associated documentation are proprietary
  to Synopsys, Inc. This software may only be used in accordance
  with the terms and conditions of a written license agreement with
  Synopsys, Inc. All other use, reproduction, or distribution of
  this software is strictly prohibited.
  Input File: RLC_p3.sp                                                         
  Command line options: C:\synopsys\Hspice_P-2019.06-SP1-1\WIN64\hspice.com -i RLC_p3.sp -o F:\Benchmark\RLC_p3.lis
  Start time: Tue Dec  6 17:50:50 2022
  lic:  
  lic: FLEXlm: SDK_12.3 
  lic: USER:   44919                HOSTNAME: CZJ 
  lic: HOSTID: "000000000000"       PID:      14880 
  lic: Using FLEXlm license file: 
  lic: 27000@CZJ 
  lic: Checkout 1 hspice 
  lic: License/Maintenance for hspice will expire on 30-dec-2030/2030.12 
  lic: 1(in_use)/99(total) FLOATING license(s) on SERVER 27000@CZJ 
  lic:   
1****** HSPICE -- P-2019.06-SP1-1 win64 (Sep 27 2019) ******                    
 ******  
 * example rlc-3

 ****** circuit name directory
 circuit number to circuit name directory
   number circuitname                     definition         multiplier
        0 main circuit
        1 x1.                             seg                1.00 
        2 x2.                             seg                1.00 
        3 x3.                             seg                1.00 
  **info** (RLC_p3.sp:3) DC voltage reset to initial transient source value in source 0:vin. new dc=0.0000D+00
  
      
 *****************************************************************
 ******  option summary
 ******
 runlvl  = 3         bypass  = 2.0000    

 **info** rebuilding matrix with pivot option

 **info** dc convergence successful at Newton-Raphson method 
 ******  
 * example rlc-3

 ****** operating point information tnom=  25.000 temp=  25.000 ******
 ****** operating point status is voltage   simulation time is     0.     
    node    =voltage      node    =voltage      node    =voltage

 +0:n_in1   =   0.      0:n_in2   =   0.      0:n_in3   =   0.     
 +0:n_out   =   0.      1:n_1     =   0.      2:n_1     =   0.     
 +3:n_1     =   0.     

 ******
 * example rlc-3

 ****** transient analysis tnom=  25.000 temp=  25.000 ******
x

 time         voltage   
             n_out      
    0.          0.      
    4.00000u    0.      
    8.00000u    0.      
   12.00000u    0.      
   16.00000u    0.      
   20.00000u    0.      
   24.00000u    0.      
   28.00000u    0.      
   32.00000u    0.      
   36.00000u    0.      
   40.00000u    0.      
   44.00000u    0.      
   48.00000u    0.      
   52.00000u    0.      
   56.00000u    0.      
   60.00000u    0.      
   64.00000u    0.      
   68.00000u    0.      
   72.00000u    0.      
   76.00000u    0.      
   80.00000u    0.      
   84.00000u    0.      
   88.00000u    0.      
   92.00000u    0.      
   96.00000u    0.      
  100.00000u    0.      
  104.00000u    0.      
  108.00000u    0.      
  112.00000u    0.      
  116.00000u    0.      
  120.00000u    0.      
  124.00000u    0.      
  128.00000u    0.      
  132.00000u    0.      
  136.00000u    0.      
  140.00000u    0.      
  144.00000u    0.      
  148.00000u    0.      
  152.00000u    0.      
  156.00000u    0.      
  160.00000u    0.      
  164.00000u    0.      
  168.00000u    0.      
  172.00000u    0.      
  176.00000u    0.      
  180.00000u    0.      
  184.00000u    0.      
  188.00000u    0.      
  192.00000u    0.      
  196.00000u    0.      
  200.00000u    0.      
  204.00000u    0.      
  208.00000u    0.      
  212.00000u    0.      
  216.00000u    0.      
  220.00000u    0.      
  224.00000u    0.      
  228.00000u    0.      
  232.00000u    0.      
  236.00000u    0.      
  240.00000u    0.      
  244.00000u    0.      
  248.00000u    0.      
  252.00000u    0.      
  256.00000u    0.      
  260.00000u    0.      
  264.00000u    0.      
  268.00000u    0.      
  272.00000u    0.      
  276.00000u    0.      
  280.00000u    0.      
  284.00000u    0.      
  288.00000u    0.      
  292.00000u    0.      
  296.00000u    0.      
  300.00000u    0.      
  304.00000u    0.      
  308.00000u    0.      
  312.00000u    0.      
  316.00000u    0.      
  320.00000u    0.      
  324.00000u    0.      
  328.00000u    0.      
  332.00000u    0.      
  336.00000u    0.      
  340.00000u    0.      
  344.00000u    0.      
  348.00000u    0.      
  352.00000u    0.      
  356.00000u    0.      
  360.00000u    0.      
  364.00000u    0.      
  368.00000u    0.      
  372.00000u    0.      
  376.00000u    0.      
  380.00000u    0.      
  384.00000u    0.      
  388.00000u    0.      
  392.00000u    0.      
  396.00000u    0.      
  400.00000u    0.      
  404.00000u    0.      
  408.00000u    0.      
  412.00000u    0.      
  416.00000u    0.      
  420.00000u    0.      
  424.00000u    0.      
  428.00000u    0.      
  432.00000u    0.      
  436.00000u    0.      
  440.00000u    0.      
  444.00000u    0.      
  448.00000u    0.      
  452.00000u    0.      
  456.00000u    0.      
  460.00000u    0.      
  464.00000u    0.      
  468.00000u    0.      
  472.00000u    0.      
  476.00000u    0.      
  480.00000u    0.      
  484.00000u    0.      
  488.00000u    0.      
  492.00000u    0.      
  496.00000u    0.      
  500.00000u    0.      
  504.00000u    0.      
  508.00000u    0.      
  512.00000u    0.      
  516.00000u    0.      
  520.00000u    0.      
  524.00000u    0.      
  528.00000u    0.      
  532.00000u    0.      
  536.00000u    0.      
  540.00000u    0.      
  544.00000u    0.      
  548.00000u    0.      
  552.00000u    0.      
  556.00000u    0.      
  560.00000u    0.      
  564.00000u    0.      
  568.00000u    0.      
  572.00000u    0.      
  576.00000u    0.      
  580.00000u    0.      
  584.00000u    0.      
  588.00000u    0.      
  592.00000u    0.      
  596.00000u    0.      
  600.00000u    0.      
  604.00000u    0.      
  608.00000u    0.      
  612.00000u    0.      
  616.00000u    0.      
  620.00000u    0.      
  624.00000u    0.      
  628.00000u    0.      
  632.00000u    0.      
  636.00000u    0.      
  640.00000u    0.      
  644.00000u    0.      
  648.00000u    0.      
  652.00000u    0.      
  656.00000u    0.      
  660.00000u    0.      
  664.00000u    0.      
  668.00000u    0.      
  672.00000u    0.      
  676.00000u    0.      
  680.00000u    0.      
  684.00000u    0.      
  688.00000u    0.      
  692.00000u    0.      
  696.00000u    0.      
  700.00000u    0.      
  704.00000u    0.      
  708.00000u    0.      
  712.00000u    0.      
  716.00000u    0.      
  720.00000u    0.      
  724.00000u    0.      
  728.00000u    0.      
  732.00000u    0.      
  736.00000u    0.      
  740.00000u    0.      
  744.00000u    0.      
  748.00000u    0.      
  752.00000u    0.      
  756.00000u    0.      
  760.00000u    0.      
  764.00000u    0.      
  768.00000u    0.      
  772.00000u    0.      
  776.00000u    0.      
  780.00000u    0.      
  784.00000u    0.      
  788.00000u    0.      
  792.00000u    0.      
  796.00000u    0.      
  800.00000u    0.      
  804.00000u    0.      
  808.00000u    0.      
  812.00000u    0.      
  816.00000u    0.      
  820.00000u    0.      
  824.00000u    0.      
  828.00000u    0.      
  832.00000u    0.      
  836.00000u    0.      
  840.00000u    0.      
  844.00000u    0.      
  848.00000u    0.      
  852.00000u    0.      
  856.00000u    0.      
  860.00000u    0.      
  864.00000u    0.      
  868.00000u    0.      
  872.00000u    0.      
  876.00000u    0.      
  880.00000u    0.      
  884.00000u    0.      
  888.00000u    0.      
  892.00000u    0.      
  896.00000u    0.      
  900.00000u    0.      
  904.00000u    0.      
  908.00000u    0.      
  912.00000u    0.      
  916.00000u    0.      
  920.00000u    0.      
  924.00000u    0.      
  928.00000u    0.      
  932.00000u    0.      
  936.00000u    0.      
  940.00000u    0.      
  944.00000u    0.      
  948.00000u    0.      
  952.00000u    0.      
  956.00000u    0.      
  960.00000u    0.      
  964.00000u    0.      
  968.00000u    0.      
  972.00000u    0.      
  976.00000u    0.      
  980.00000u    0.      
  984.00000u    0.      
  988.00000u    0.      
  992.00000u    0.      
  996.00000u    0.      
    1.00000m    0.      
    1.00400m  323.6995u 
    1.00800m  647.3991u 
    1.01200m  971.0986u 
    1.01600m    1.2948m 
    1.02000m    1.6185m 
    1.02400m    1.9422m 
    1.02800m    2.2659m 
    1.03200m    2.5896m 
    1.03600m    2.9133m 
    1.04000m    3.2370m 
    1.04400m    3.5607m 
    1.04800m    3.8844m 
    1.05200m    4.2081m 
    1.05600m    4.5318m 
    1.06000m    4.8555m 
    1.06400m    5.1792m 
    1.06800m    5.5029m 
    1.07200m    5.8266m 
    1.07600m    6.1650m 
    1.08000m    6.5473m 
    1.08400m    6.9297m 
    1.08800m    7.3121m 
    1.09200m    7.6944m 
    1.09600m    8.0768m 
    1.10000m    8.6843m 
    1.10400m    9.5210m 
    1.10800m   10.3576m 
    1.11200m   11.1943m 
    1.11600m   12.0309m 
    1.12000m   12.8676m 
    1.12400m   13.7042m 
    1.12800m   14.5409m 
    1.13200m   15.3775m 
    1.13600m   16.2142m 
    1.14000m   17.0508m 
    1.14400m   17.8875m 
    1.14800m   18.7241m 
    1.15200m   19.5608m 
    1.15600m   20.3974m 
    1.16000m   21.2341m 
    1.16400m   22.0707m 
    1.16800m   22.9074m 
    1.17200m   23.8536m 
    1.17600m   26.0386m 
    1.18000m   28.2236m 
    1.18400m   30.4085m 
    1.18800m   32.5935m 
    1.19200m   34.7785m 
    1.19600m   36.9634m 
    1.20000m   39.1484m 
    1.20400m   41.3333m 
    1.20800m   43.5183m 
    1.21200m   45.7033m 
    1.21600m   47.8882m 
    1.22000m   50.0732m 
    1.22400m   52.2582m 
    1.22800m   54.4431m 
    1.23200m   56.6281m 
    1.23600m   58.8131m 
    1.24000m   60.9980m 
    1.24400m   63.1830m 
    1.24800m   65.7247m 
    1.25200m   72.0966m 
    1.25600m   78.4685m 
    1.26000m   84.8405m 
    1.26400m   91.2124m 
    1.26800m   97.5844m 
    1.27200m  103.9563m 
    1.27600m  110.3282m 
    1.28000m  116.7002m 
    1.28400m  123.0721m 
    1.28800m  129.4441m 
    1.29200m  135.8160m 
    1.29600m  142.1879m 
    1.30000m  148.5599m 
    1.30400m  154.9318m 
    1.30800m  161.3038m 
    1.31200m  167.6757m 
    1.31600m  174.0476m 
    1.32000m  180.4196m 
    1.32400m  186.7915m 
    1.32800m  193.1635m 
    1.33200m  199.5354m 
    1.33600m  205.9074m 
    1.34000m  212.2793m 
    1.34400m  218.6512m 
    1.34800m  225.0232m 
    1.35200m  231.3951m 
    1.35600m  237.7671m 
    1.36000m  244.1390m 
    1.36400m  250.5109m 
    1.36800m  256.8829m 
    1.37200m  263.3539m 
    1.37600m  276.0373m 
    1.38000m  288.7207m 
    1.38400m  301.4041m 
    1.38800m  314.0874m 
    1.39200m  326.7708m 
    1.39600m  339.4542m 
    1.40000m  352.1375m 
    1.40400m  364.8209m 
    1.40800m  377.5043m 
    1.41200m  390.1877m 
    1.41600m  402.8710m 
    1.42000m  415.5544m 
    1.42400m  428.2378m 
    1.42800m  440.9212m 
    1.43200m  453.6045m 
    1.43600m  466.2879m 
    1.44000m  478.9713m 
    1.44400m  491.6547m 
    1.44800m  504.3380m 
    1.45200m  517.0214m 
    1.45600m  530.7470m 
    1.46000m  548.2012m 
    1.46400m  565.6554m 
    1.46800m  583.1095m 
    1.47200m  600.5637m 
    1.47600m  618.0179m 
    1.48000m  635.4721m 
    1.48400m  652.9262m 
    1.48800m  670.3804m 
    1.49200m  687.8346m 
    1.49600m  705.2888m 
    1.50000m  722.7429m 
    1.50400m  742.9752m 
    1.50800m  763.2076m 
    1.51200m  783.4399m 
    1.51600m  803.6817m 
    1.52000m  824.3277m 
    1.52400m  844.9738m 
    1.52800m  865.6198m 
    1.53200m  887.6322m 
    1.53600m  909.7888m 
    1.54000m  931.9454m 
    1.54400m  954.1021m 
    1.54800m  976.2587m 
    1.55200m  998.4153m 
    1.55600m    1.0206  
    1.56000m    1.0427  
    1.56400m    1.0649  
    1.56800m    1.0880  
    1.57200m    1.1126  
    1.57600m    1.1372  
    1.58000m    1.1618  
    1.58400m    1.1864  
    1.58800m    1.2110  
    1.59200m    1.2356  
    1.59600m    1.2602  
    1.60000m    1.2847  
    1.60400m    1.3093  
    1.60800m    1.3339  
    1.61200m    1.3585  
    1.61600m    1.3831  
    1.62000m    1.4077  
    1.62400m    1.4323  
    1.62800m    1.4569  
    1.63200m    1.4814  
    1.63600m    1.5060  
    1.64000m    1.5306  
    1.64400m    1.5558  
    1.64800m    1.5816  
    1.65200m    1.6075  
    1.65600m    1.6333  
    1.66000m    1.6592  
    1.66400m    1.6851  
    1.66800m    1.7109  
    1.67200m    1.7368  
    1.67600m    1.7626  
    1.68000m    1.7885  
    1.68400m    1.8143  
    1.68800m    1.8402  
    1.69200m    1.8660  
    1.69600m    1.8919  
    1.70000m    1.9177  
    1.70400m    1.9436  
    1.70800m    1.9695  
    1.71200m    1.9953  
    1.71600m    2.0212  
    1.72000m    2.0470  
    1.72400m    2.0729  
    1.72800m    2.0987  
    1.73200m    2.1246  
    1.73600m    2.1504  
    1.74000m    2.1745  
    1.74400m    2.1981  
    1.74800m    2.2218  
    1.75200m    2.2454  
    1.75600m    2.2690  
    1.76000m    2.2927  
    1.76400m    2.3163  
    1.76800m    2.3399  
    1.77200m    2.3636  
    1.77600m    2.3872  
    1.78000m    2.4108  
    1.78400m    2.4345  
    1.78800m    2.4581  
    1.79200m    2.4817  
    1.79600m    2.5054  
    1.80000m    2.5290  
    1.80400m    2.5526  
    1.80800m    2.5763  
    1.81200m    2.5999  
    1.81600m    2.6235  
    1.82000m    2.6472  
    1.82400m    2.6708  
    1.82800m    2.6944  
    1.83200m    2.7181  
    1.83600m    2.7417  
    1.84000m    2.7653  
    1.84400m    2.7853  
    1.84800m    2.8040  
    1.85200m    2.8227  
    1.85600m    2.8414  
    1.86000m    2.8601  
    1.86400m    2.8788  
    1.86800m    2.8975  
    1.87200m    2.9162  
    1.87600m    2.9349  
    1.88000m    2.9536  
    1.88400m    2.9723  
    1.88800m    2.9910  
    1.89200m    3.0097  
    1.89600m    3.0284  
    1.90000m    3.0471  
    1.90400m    3.0658  
    1.90800m    3.0845  
    1.91200m    3.1032  
    1.91600m    3.1219  
    1.92000m    3.1406  
    1.92400m    3.1574  
    1.92800m    3.1699  
    1.93200m    3.1823  
    1.93600m    3.1948  
    1.94000m    3.2072  
    1.94400m    3.2197  
    1.94800m    3.2321  
    1.95200m    3.2446  
    1.95600m    3.2570  
    1.96000m    3.2695  
    1.96400m    3.2819  
    1.96800m    3.2944  
    1.97200m    3.3068  
    1.97600m    3.3193  
    1.98000m    3.3318  
    1.98400m    3.3442  
    1.98800m    3.3567  
    1.99200m    3.3691  
    1.99600m    3.3816  
    2.00000m    3.3940  
    2.00400m    3.4065  
    2.00800m    3.4189  
    2.01200m    3.4314  
    2.01600m    3.4438  
    2.02000m    3.4563  
    2.02400m    3.4666  
    2.02800m    3.4731  
    2.03200m    3.4796  
    2.03600m    3.4861  
    2.04000m    3.4926  
    2.04400m    3.4991  
    2.04800m    3.5056  
    2.05200m    3.5121  
    2.05600m    3.5186  
    2.06000m    3.5250  
    2.06400m    3.5315  
    2.06800m    3.5380  
    2.07200m    3.5445  
    2.07600m    3.5510  
    2.08000m    3.5575  
    2.08400m    3.5640  
    2.08800m    3.5705  
    2.09200m    3.5769  
    2.09600m    3.5834  
    2.10000m    3.5899  
    2.10400m    3.5964  
    2.10800m    3.6029  
    2.11200m    3.6094  
    2.11600m    3.6159  
    2.12000m    3.6224  
    2.12400m    3.6289  
    2.12800m    3.6324  
    2.13200m    3.6352  
    2.13600m    3.6379  
    2.14000m    3.6407  
    2.14400m    3.6434  
    2.14800m    3.6462  
    2.15200m    3.6489  
    2.15600m    3.6517  
    2.16000m    3.6544  
    2.16400m    3.6572  
    2.16800m    3.6599  
    2.17200m    3.6626  
    2.17600m    3.6654  
    2.18000m    3.6681  
    2.18400m    3.6709  
    2.18800m    3.6736  
    2.19200m    3.6764  
    2.19600m    3.6791  
    2.20000m    3.6819  
    2.20400m    3.6846  
    2.20800m    3.6874  
    2.21200m    3.6901  
    2.21600m    3.6929  
    2.22000m    3.6954  
    2.22400m    3.6957  
    2.22800m    3.6960  
    2.23200m    3.6963  
    2.23600m    3.6966  
    2.24000m    3.6969  
    2.24400m    3.6972  
    2.24800m    3.6975  
    2.25200m    3.6978  
    2.25600m    3.6981  
    2.26000m    3.6984  
    2.26400m    3.6987  
    2.26800m    3.6990  
    2.27200m    3.6993  
    2.27600m    3.6996  
    2.28000m    3.6999  
    2.28400m    3.7002  
    2.28800m    3.7005  
    2.29200m    3.7008  
    2.29600m    3.7011  
    2.30000m    3.7014  
    2.30400m    3.7017  
    2.30800m    3.7020  
    2.31200m    3.7023  
    2.31600m    3.7026  
    2.32000m    3.7029  
    2.32400m    3.7032  
    2.32800m    3.7003  
    2.33200m    3.6975  
    2.33600m    3.6946  
    2.34000m    3.6918  
    2.34400m    3.6889  
    2.34800m    3.6861  
    2.35200m    3.6832  
    2.35600m    3.6804  
    2.36000m    3.6775  
    2.36400m    3.6747  
    2.36800m    3.6719  
    2.37200m    3.6690  
    2.37600m    3.6662  
    2.38000m    3.6633  
    2.38400m    3.6605  
    2.38800m    3.6576  
    2.39200m    3.6548  
    2.39600m    3.6519  
    2.40000m    3.6491  
    2.40400m    3.6462  
    2.40800m    3.6434  
    2.41200m    3.6405  
    2.41600m    3.6377  
    2.42000m    3.6348  
    2.42400m    3.6320  
    2.42800m    3.6292  
    2.43200m    3.6263  
    2.43600m    3.6235  
    2.44000m    3.6206  
    2.44400m    3.6178  
    2.44800m    3.6149  
    2.45200m    3.6121  
    2.45600m    3.6092  
    2.46000m    3.6034  
    2.46400m    3.5975  
    2.46800m    3.5916  
    2.47200m    3.5857  
    2.47600m    3.5799  
    2.48000m    3.5740  
    2.48400m    3.5681  
    2.48800m    3.5622  
    2.49200m    3.5563  
    2.49600m    3.5504  
    2.50000m    3.5445  
    2.50400m    3.5387  
    2.50800m    3.5328  
    2.51200m    3.5269  
    2.51600m    3.5210  
    2.52000m    3.5151  
    2.52400m    3.5092  
    2.52800m    3.5033  
    2.53200m    3.4975  
    2.53600m    3.4916  
    2.54000m    3.4857  
    2.54400m    3.4798  
    2.54800m    3.4739  
    2.55200m    3.4669  
    2.55600m    3.4598  
    2.56000m    3.4527  
    2.56400m    3.4456  
    2.56800m    3.4385  
    2.57200m    3.4314  
    2.57600m    3.4243  
    2.58000m    3.4172  
    2.58400m    3.4101  
    2.58800m    3.4030  
    2.59200m    3.3959  
    2.59600m    3.3888  
    2.60000m    3.3817  
    2.60400m    3.3747  
    2.60800m    3.3676  
    2.61200m    3.3605  
    2.61600m    3.3534  
    2.62000m    3.3463  
    2.62400m    3.3392  
    2.62800m    3.3321  
    2.63200m    3.3250  
    2.63600m    3.3179  
    2.64000m    3.3108  
    2.64400m    3.3037  
    2.64800m    3.2966  
    2.65200m    3.2895  
    2.65600m    3.2824  
    2.66000m    3.2754  
    2.66400m    3.2693  
    2.66800m    3.2631  
    2.67200m    3.2570  
    2.67600m    3.2508  
    2.68000m    3.2447  
    2.68400m    3.2385  
    2.68800m    3.2324  
    2.69200m    3.2262  
    2.69600m    3.2201  
    2.70000m    3.2139  
    2.70400m    3.2078  
    2.70800m    3.2017  
    2.71200m    3.1955  
    2.71600m    3.1894  
    2.72000m    3.1832  
    2.72400m    3.1771  
    2.72800m    3.1709  
    2.73200m    3.1648  
    2.73600m    3.1586  
    2.74000m    3.1525  
    2.74400m    3.1463  
    2.74800m    3.1402  
    2.75200m    3.1340  
    2.75600m    3.1279  
    2.76000m    3.1218  
    2.76400m    3.1156  
    2.76800m    3.1095  
    2.77200m    3.1033  
    2.77600m    3.0972  
    2.78000m    3.0910  
    2.78400m    3.0849  
    2.78800m    3.0787  
    2.79200m    3.0726  
    2.79600m    3.0664  
    2.80000m    3.0620  
    2.80400m    3.0579  
    2.80800m    3.0538  
    2.81200m    3.0498  
    2.81600m    3.0457  
    2.82000m    3.0416  
    2.82400m    3.0375  
    2.82800m    3.0334  
    2.83200m    3.0293  
    2.83600m    3.0252  
    2.84000m    3.0211  
    2.84400m    3.0170  
    2.84800m    3.0129  
    2.85200m    3.0088  
    2.85600m    3.0047  
    2.86000m    3.0006  
    2.86400m    2.9966  
    2.86800m    2.9925  
    2.87200m    2.9884  
    2.87600m    2.9843  
    2.88000m    2.9802  
    2.88400m    2.9761  
    2.88800m    2.9720  
    2.89200m    2.9679  
    2.89600m    2.9638  
    2.90000m    2.9597  
    2.90400m    2.9556  
    2.90800m    2.9515  
    2.91200m    2.9475  
    2.91600m    2.9434  
    2.92000m    2.9404  
    2.92400m    2.9380  
    2.92800m    2.9356  
    2.93200m    2.9332  
    2.93600m    2.9308  
    2.94000m    2.9284  
    2.94400m    2.9260  
    2.94800m    2.9236  
    2.95200m    2.9213  
    2.95600m    2.9189  
    2.96000m    2.9165  
    2.96400m    2.9141  
    2.96800m    2.9117  
    2.97200m    2.9093  
    2.97600m    2.9069  
    2.98000m    2.9045  
    2.98400m    2.9022  
    2.98800m    2.8998  
    2.99200m    2.8974  
    2.99600m    2.8950  
    3.00000m    2.8926  
    3.00400m    2.8902  
    3.00800m    2.8878  
    3.01200m    2.8854  
    3.01600m    2.8831  
    3.02000m    2.8807  
    3.02400m    2.8783  
    3.02800m    2.8759  
    3.03200m    2.8735  
    3.03600m    2.8711  
    3.04000m    2.8687  
    3.04400m    2.8663  
    3.04800m    2.8640  
    3.05200m    2.8616  
    3.05600m    2.8593  
    3.06000m    2.8582  
    3.06400m    2.8570  
    3.06800m    2.8559  
    3.07200m    2.8547  
    3.07600m    2.8536  
    3.08000m    2.8524  
    3.08400m    2.8512  
    3.08800m    2.8501  
    3.09200m    2.8489  
    3.09600m    2.8478  
    3.10000m    2.8466  
    3.10400m    2.8455  
    3.10800m    2.8443  
    3.11200m    2.8432  
    3.11600m    2.8420  
    3.12000m    2.8408  
    3.12400m    2.8397  
    3.12800m    2.8385  
    3.13200m    2.8374  
    3.13600m    2.8362  
    3.14000m    2.8351  
    3.14400m    2.8339  
    3.14800m    2.8328  
    3.15200m    2.8316  
    3.15600m    2.8304  
    3.16000m    2.8293  
    3.16400m    2.8281  
    3.16800m    2.8270  
    3.17200m    2.8258  
    3.17600m    2.8247  
    3.18000m    2.8235  
    3.18400m    2.8225  
    3.18800m    2.8223  
    3.19200m    2.8222  
    3.19600m    2.8220  
    3.20000m    2.8219  
    3.20400m    2.8217  
    3.20800m    2.8216  
    3.21200m    2.8214  
    3.21600m    2.8212  
    3.22000m    2.8211  
    3.22400m    2.8209  
    3.22800m    2.8208  
    3.23200m    2.8206  
    3.23600m    2.8205  
    3.24000m    2.8203  
    3.24400m    2.8202  
    3.24800m    2.8200  
    3.25200m    2.8198  
    3.25600m    2.8197  
    3.26000m    2.8195  
    3.26400m    2.8194  
    3.26800m    2.8192  
    3.27200m    2.8191  
    3.27600m    2.8189  
    3.28000m    2.8188  
    3.28400m    2.8186  
    3.28800m    2.8185  
    3.29200m    2.8183  
    3.29600m    2.8181  
    3.30000m    2.8180  
    3.30400m    2.8178  
    3.30800m    2.8184  
    3.31200m    2.8194  
    3.31600m    2.8204  
    3.32000m    2.8214  
    3.32400m    2.8224  
    3.32800m    2.8234  
    3.33200m    2.8244  
    3.33600m    2.8254  
    3.34000m    2.8264  
    3.34400m    2.8274  
    3.34800m    2.8284  
    3.35200m    2.8294  
    3.35600m    2.8304  
    3.36000m    2.8314  
    3.36400m    2.8324  
    3.36800m    2.8334  
    3.37200m    2.8344  
    3.37600m    2.8354  
    3.38000m    2.8364  
    3.38400m    2.8374  
    3.38800m    2.8384  
    3.39200m    2.8394  
    3.39600m    2.8404  
    3.40000m    2.8414  
    3.40400m    2.8424  
    3.40800m    2.8434  
    3.41200m    2.8444  
    3.41600m    2.8454  
    3.42000m    2.8464  
    3.42400m    2.8474  
    3.42800m    2.8484  
    3.43200m    2.8494  
    3.43600m    2.8504  
    3.44000m    2.8514  
    3.44400m    2.8524  
    3.44800m    2.8534  
    3.45200m    2.8544  
    3.45600m    2.8554  
    3.46000m    2.8564  
    3.46400m    2.8574  
    3.46800m    2.8584  
    3.47200m    2.8594  
    3.47600m    2.8604  
    3.48000m    2.8614  
    3.48400m    2.8624  
    3.48800m    2.8634  
    3.49200m    2.8644  
    3.49600m    2.8654  
    3.50000m    2.8664  
    3.50400m    2.8675  
    3.50800m    2.8694  
    3.51200m    2.8712  
    3.51600m    2.8731  
    3.52000m    2.8749  
    3.52400m    2.8768  
    3.52800m    2.8786  
    3.53200m    2.8805  
    3.53600m    2.8823  
    3.54000m    2.8842  
    3.54400m    2.8860  
    3.54800m    2.8879  
    3.55200m    2.8897  
    3.55600m    2.8916  
    3.56000m    2.8934  
    3.56400m    2.8953  
    3.56800m    2.8971  
    3.57200m    2.8990  
    3.57600m    2.9008  
    3.58000m    2.9027  
    3.58400m    2.9045  
    3.58800m    2.9063  
    3.59200m    2.9082  
    3.59600m    2.9100  
    3.60000m    2.9119  
    3.60400m    2.9137  
    3.60800m    2.9156  
    3.61200m    2.9174  
    3.61600m    2.9193  
    3.62000m    2.9210  
    3.62400m    2.9226  
    3.62800m    2.9242  
    3.63200m    2.9258  
    3.63600m    2.9274  
    3.64000m    2.9290  
    3.64400m    2.9306  
    3.64800m    2.9322  
    3.65200m    2.9338  
    3.65600m    2.9354  
    3.66000m    2.9370  
    3.66400m    2.9386  
    3.66800m    2.9402  
    3.67200m    2.9418  
    3.67600m    2.9434  
    3.68000m    2.9450  
    3.68400m    2.9466  
    3.68800m    2.9482  
    3.69200m    2.9498  
    3.69600m    2.9514  
    3.70000m    2.9530  
    3.70400m    2.9546  
    3.70800m    2.9562  
    3.71200m    2.9578  
    3.71600m    2.9594  
    3.72000m    2.9610  
    3.72400m    2.9626  
    3.72800m    2.9642  
    3.73200m    2.9658  
    3.73600m    2.9674  
    3.74000m    2.9690  
    3.74400m    2.9706  
    3.74800m    2.9722  
    3.75200m    2.9738  
    3.75600m    2.9754  
    3.76000m    2.9770  
    3.76400m    2.9786  
    3.76800m    2.9802  
    3.77200m    2.9818  
    3.77600m    2.9834  
    3.78000m    2.9850  
    3.78400m    2.9866  
    3.78800m    2.9882  
    3.79200m    2.9898  
    3.79600m    2.9914  
    3.80000m    2.9930  
    3.80400m    2.9946  
    3.80800m    2.9962  
    3.81200m    2.9978  
    3.81600m    2.9994  
    3.82000m    3.0010  
    3.82400m    3.0026  
    3.82800m    3.0042  
    3.83200m    3.0054  
    3.83600m    3.0061  
    3.84000m    3.0068  
    3.84400m    3.0076  
    3.84800m    3.0083  
    3.85200m    3.0091  
    3.85600m    3.0098  
    3.86000m    3.0106  
    3.86400m    3.0113  
    3.86800m    3.0120  
    3.87200m    3.0128  
    3.87600m    3.0135  
    3.88000m    3.0143  
    3.88400m    3.0150  
    3.88800m    3.0158  
    3.89200m    3.0165  
    3.89600m    3.0172  
    3.90000m    3.0180  
    3.90400m    3.0187  
    3.90800m    3.0195  
    3.91200m    3.0202  
    3.91600m    3.0210  
    3.92000m    3.0217  
    3.92400m    3.0224  
    3.92800m    3.0232  
    3.93200m    3.0239  
    3.93600m    3.0247  
    3.94000m    3.0254  
    3.94400m    3.0261  
    3.94800m    3.0269  
    3.95200m    3.0276  
    3.95600m    3.0284  
    3.96000m    3.0291  
    3.96400m    3.0299  
    3.96800m    3.0306  
    3.97200m    3.0313  
    3.97600m    3.0315  
    3.98000m    3.0318  
    3.98400m    3.0320  
    3.98800m    3.0322  
    3.99200m    3.0325  
    3.99600m    3.0327  
    4.00000m    3.0329  
    4.00400m    3.0332  
    4.00800m    3.0334  
    4.01200m    3.0336  
    4.01600m    3.0338  
    4.02000m    3.0341  
    4.02400m    3.0343  
    4.02800m    3.0345  
    4.03200m    3.0348  
    4.03600m    3.0350  
    4.04000m    3.0352  
    4.04400m    3.0355  
    4.04800m    3.0357  
    4.05200m    3.0359  
    4.05600m    3.0361  
    4.06000m    3.0364  
    4.06400m    3.0366  
    4.06800m    3.0368  
    4.07200m    3.0371  
    4.07600m    3.0373  
    4.08000m    3.0375  
    4.08400m    3.0378  
    4.08800m    3.0380  
    4.09200m    3.0382  
    4.09600m    3.0384  
    4.10000m    3.0387  
    4.10400m    3.0389  
    4.10800m    3.0391  
    4.11200m    3.0394  
    4.11600m    3.0396  
    4.12000m    3.0398  
    4.12400m    3.0401  
    4.12800m    3.0403  
    4.13200m    3.0405  
    4.13600m    3.0407  
    4.14000m    3.0410  
    4.14400m    3.0412  
    4.14800m    3.0414  
    4.15200m    3.0417  
    4.15600m    3.0419  
    4.16000m    3.0421  
    4.16400m    3.0424  
    4.16800m    3.0426  
    4.17200m    3.0428  
    4.17600m    3.0429  
    4.18000m    3.0430  
    4.18400m    3.0431  
    4.18800m    3.0432  
    4.19200m    3.0433  
    4.19600m    3.0433  
    4.20000m    3.0434  
    4.20400m    3.0435  
    4.20800m    3.0436  
    4.21200m    3.0437  
    4.21600m    3.0438  
    4.22000m    3.0438  
    4.22400m    3.0439  
    4.22800m    3.0440  
    4.23200m    3.0441  
    4.23600m    3.0442  
    4.24000m    3.0442  
    4.24400m    3.0443  
    4.24800m    3.0444  
    4.25200m    3.0445  
    4.25600m    3.0446  
    4.26000m    3.0447  
    4.26400m    3.0447  
    4.26800m    3.0448  
    4.27200m    3.0449  
    4.27600m    3.0450  
    4.28000m    3.0451  
    4.28400m    3.0452  
    4.28800m    3.0452  
    4.29200m    3.0453  
    4.29600m    3.0454  
    4.30000m    3.0455  
    4.30400m    3.0456  
    4.30800m    3.0456  
    4.31200m    3.0457  
    4.31600m    3.0458  
    4.32000m    3.0459  
    4.32400m    3.0460  
    4.32800m    3.0461  
    4.33200m    3.0461  
    4.33600m    3.0462  
    4.34000m    3.0463  
    4.34400m    3.0464  
    4.34800m    3.0465  
    4.35200m    3.0465  
    4.35600m    3.0464  
    4.36000m    3.0462  
    4.36400m    3.0459  
    4.36800m    3.0456  
    4.37200m    3.0454  
    4.37600m    3.0451  
    4.38000m    3.0448  
    4.38400m    3.0446  
    4.38800m    3.0443  
    4.39200m    3.0440  
    4.39600m    3.0437  
    4.40000m    3.0435  
    4.40400m    3.0432  
    4.40800m    3.0429  
    4.41200m    3.0427  
    4.41600m    3.0424  
    4.42000m    3.0421  
    4.42400m    3.0419  
    4.42800m    3.0416  
    4.43200m    3.0413  
    4.43600m    3.0411  
    4.44000m    3.0408  
    4.44400m    3.0405  
    4.44800m    3.0403  
    4.45200m    3.0400  
    4.45600m    3.0397  
    4.46000m    3.0394  
    4.46400m    3.0392  
    4.46800m    3.0389  
    4.47200m    3.0386  
    4.47600m    3.0384  
    4.48000m    3.0381  
    4.48400m    3.0378  
    4.48800m    3.0376  
    4.49200m    3.0373  
    4.49600m    3.0370  
    4.50000m    3.0368  
    4.50400m    3.0361  
    4.50800m    3.0355  
    4.51200m    3.0349  
    4.51600m    3.0343  
    4.52000m    3.0337  
    4.52400m    3.0331  
    4.52800m    3.0324  
    4.53200m    3.0318  
    4.53600m    3.0311  
    4.54000m    3.0305  
    4.54400m    3.0298  
    4.54800m    3.0291  
    4.55200m    3.0284  
    4.55600m    3.0277  
    4.56000m    3.0270  
    4.56400m    3.0263  
    4.56800m    3.0256  
    4.57200m    3.0249  
    4.57600m    3.0242  
    4.58000m    3.0235  
    4.58400m    3.0228  
    4.58800m    3.0221  
    4.59200m    3.0214  
    4.59600m    3.0207  
    4.60000m    3.0200  
    4.60400m    3.0193  
    4.60800m    3.0185  
    4.61200m    3.0175  
    4.61600m    3.0166  
    4.62000m    3.0157  
    4.62400m    3.0148  
    4.62800m    3.0138  
    4.63200m    3.0129  
    4.63600m    3.0120  
    4.64000m    3.0111  
    4.64400m    3.0101  
    4.64800m    3.0092  
    4.65200m    3.0083  
    4.65600m    3.0074  
    4.66000m    3.0064  
    4.66400m    3.0055  
    4.66800m    3.0046  
    4.67200m    3.0037  
    4.67600m    3.0027  
    4.68000m    3.0003  
    4.68400m    2.9978  
    4.68800m    2.9953  
    4.69200m    2.9928  
    4.69600m    2.9903  
    4.70000m    2.9878  
    4.70400m    2.9853  
    4.70800m    2.9828  
    4.71200m    2.9803  
    4.71600m    2.9779  
    4.72000m    2.9754  
    4.72400m    2.9729  
    4.72800m    2.9704  
    4.73200m    2.9679  
    4.73600m    2.9654  
    4.74000m    2.9629  
    4.74400m    2.9604  
    4.74800m    2.9579  
    4.75200m    2.9554  
    4.75600m    2.9529  
    4.76000m    2.9504  
    4.76400m    2.9479  
    4.76800m    2.9454  
    4.77200m    2.9429  
    4.77600m    2.9404  
    4.78000m    2.9371  
    4.78400m    2.9303  
    4.78800m    2.9235  
    4.79200m    2.9167  
    4.79600m    2.9099  
    4.80000m    2.9031  
    4.80400m    2.8963  
    4.80800m    2.8895  
    4.81200m    2.8827  
    4.81600m    2.8759  
    4.82000m    2.8691  
    4.82400m    2.8623  
    4.82800m    2.8555  
    4.83200m    2.8487  
    4.83600m    2.8419  
    4.84000m    2.8351  
    4.84400m    2.8283  
    4.84800m    2.8215  
    4.85200m    2.8147  
    4.85600m    2.8079  
    4.86000m    2.8011  
    4.86400m    2.7943  
    4.86800m    2.7875  
    4.87200m    2.7807  
    4.87600m    2.7691  
    4.88000m    2.7558  
    4.88400m    2.7424  
    4.88800m    2.7290  
    4.89200m    2.7157  
    4.89600m    2.7023  
    4.90000m    2.6889  
    4.90400m    2.6756  
    4.90800m    2.6622  
    4.91200m    2.6489  
    4.91600m    2.6355  
    4.92000m    2.6221  
    4.92400m    2.6088  
    4.92800m    2.5954  
    4.93200m    2.5820  
    4.93600m    2.5687  
    4.94000m    2.5553  
    4.94400m    2.5419  
    4.94800m    2.5286  
    4.95200m    2.5152  
    4.95600m    2.5019  
    4.96000m    2.4885  
    4.96400m    2.4711  
    4.96800m    2.4526  
    4.97200m    2.4340  
    4.97600m    2.4154  
    4.98000m    2.3968  
    4.98400m    2.3782  
    4.98800m    2.3596  
    4.99200m    2.3411  
    4.99600m    2.3225  
    5.00000m    2.3039  
    5.00400m    2.2827  
    5.00800m    2.2614  
    5.01200m    2.2402  
    5.01600m    2.2189  
    5.02000m    2.1973  
    5.02400m    2.1756  
    5.02800m    2.1538  
    5.03200m    2.1307  
    5.03600m    2.1077  
    5.04000m    2.0847  
    5.04400m    2.0616  
    5.04800m    2.0386  
    5.05200m    2.0156  
    5.05600m    1.9926  
    5.06000m    1.9695  
    5.06400m    1.9458  
    5.06800m    1.9207  
    5.07200m    1.8955  
    5.07600m    1.8703  
    5.08000m    1.8451  
    5.08400m    1.8199  
    5.08800m    1.7948  
    5.09200m    1.7696  
    5.09600m    1.7444  
    5.10000m    1.7192  
    5.10400m    1.6940  
    5.10800m    1.6689  
    5.11200m    1.6437  
    5.11600m    1.6185  
    5.12000m    1.5933  
    5.12400m    1.5681  
    5.12800m    1.5430  
    5.13200m    1.5178  
    5.13600m    1.4926  
    5.14000m    1.4670  
    5.14400m    1.4409  
    5.14800m    1.4148  
    5.15200m    1.3887  
    5.15600m    1.3626  
    5.16000m    1.3365  
    5.16400m    1.3104  
    5.16800m    1.2843  
    5.17200m    1.2582  
    5.17600m    1.2320  
    5.18000m    1.2059  
    5.18400m    1.1798  
    5.18800m    1.1537  
    5.19200m    1.1276  
    5.19600m    1.1015  
    5.20000m    1.0754  
    5.20400m    1.0493  
    5.20800m    1.0232  
    5.21200m  997.0728m 
    5.21600m  970.9648m 
    5.22000m  944.8568m 
    5.22400m  918.7489m 
    5.22800m  892.6409m 
    5.23200m  868.0104m 
    5.23600m  844.1132m 
    5.24000m  820.2160m 
    5.24400m  796.3189m 
    5.24800m  772.4217m 
    5.25200m  748.5246m 
    5.25600m  724.6274m 
    5.26000m  700.7302m 
    5.26400m  676.8331m 
    5.26800m  652.9359m 
    5.27200m  629.0388m 
    5.27600m  605.1416m 
    5.28000m  581.2444m 
    5.28400m  557.3473m 
    5.28800m  533.4501m 
    5.29200m  509.5530m 
    5.29600m  485.6558m 
    5.30000m  461.7586m 
    5.30400m  437.8615m 
    5.30800m  413.9643m 
    5.31200m  390.0672m 
    5.31600m  366.1700m 
    5.32000m  342.2728m 
    5.32400m  318.3757m 
    5.32800m  294.4785m 
    5.33200m  272.4508m 
    5.33600m  253.0841m 
    5.34000m  233.7174m 
    5.34400m  214.3506m 
    5.34800m  194.9839m 
    5.35200m  175.6172m 
    5.35600m  156.2504m 
    5.36000m  136.8837m 
    5.36400m  117.5170m 
    5.36800m   98.1503m 
    5.37200m   78.7835m 
    5.37600m   59.4168m 
    5.38000m   40.0501m 
    5.38400m   20.6833m 
    5.38800m    1.3166m 
    5.39200m  -18.0501m 
    5.39600m  -37.4168m 
    5.40000m  -56.7836m 
    5.40400m  -76.1503m 
    5.40800m  -95.5170m 
    5.41200m -112.3404m 
    5.41600m -125.7952m 
    5.42000m -139.2500m 
    5.42400m -152.7048m 
    5.42800m -166.1596m 
    5.43200m -179.6145m 
    5.43600m -193.0693m 
    5.44000m -206.5241m 
    5.44400m -219.9789m 
    5.44800m -233.4337m 
    5.45200m -246.8885m 
    5.45600m -260.3434m 
    5.46000m -273.7982m 
    5.46400m -287.2530m 
    5.46800m -300.7078m 
    5.47200m -314.1626m 
    5.47600m -327.6174m 
    5.48000m -341.0723m 
    5.48400m -354.5271m 
    5.48800m -367.9819m 
    5.49200m -381.4367m 
    5.49600m -394.8915m 
    5.50000m -408.3463m 
    5.50400m -421.8012m 
    5.50800m -434.6960m 
    5.51200m -442.2278m 
    5.51600m -449.7596m 
    5.52000m -457.2914m 
    5.52400m -464.8232m 
    5.52800m -472.3550m 
    5.53200m -479.8868m 
    5.53600m -487.4186m 
    5.54000m -494.9504m 
    5.54400m -502.4823m 
    5.54800m -510.0141m 
    5.55200m -517.5459m 
    5.55600m -525.0777m 
    5.56000m -532.6095m 
    5.56400m -540.1413m 
    5.56800m -547.6731m 
    5.57200m -555.2049m 
    5.57600m -562.7367m 
    5.58000m -570.2685m 
    5.58400m -577.8003m 
    5.58800m -585.3321m 
    5.59200m -592.8639m 
    5.59600m -600.3957m 
    5.60000m -607.9275m 
    5.60400m -615.1553m 
    5.60800m -618.7206m 
    5.61200m -622.2859m 
    5.61600m -625.8512m 
    5.62000m -629.4165m 
    5.62400m -632.9818m 
    5.62800m -636.5470m 
    5.63200m -640.1123m 
    5.63600m -643.6776m 
    5.64000m -647.2429m 
    5.64400m -650.8082m 
    5.64800m -654.3735m 
    5.65200m -657.9387m 
    5.65600m -661.5040m 
    5.66000m -665.0693m 
    5.66400m -668.6346m 
    5.66800m -672.1999m 
    5.67200m -675.7651m 
    5.67600m -679.3304m 
    5.68000m -682.8957m 
    5.68400m -686.4610m 
    5.68800m -690.0263m 
    5.69200m -693.5916m 
    5.69600m -696.6789m 
    5.70000m -697.5970m 
    5.70400m -698.5150m 
    5.70800m -699.4330m 
    5.71200m -700.3510m 
    5.71600m -701.2690m 
    5.72000m -702.1870m 
    5.72400m -703.1050m 
    5.72800m -704.0231m 
    5.73200m -704.9411m 
    5.73600m -705.8591m 
    5.74000m -706.7771m 
    5.74400m -707.6951m 
    5.74800m -708.6131m 
    5.75200m -709.5312m 
    5.75600m -710.4492m 
    5.76000m -711.3672m 
    5.76400m -712.2852m 
    5.76800m -713.2032m 
    5.77200m -714.1212m 
    5.77600m -715.0392m 
    5.78000m -715.9573m 
    5.78400m -716.8753m 
    5.78800m -717.7933m 
    5.79200m -718.7113m 
    5.79600m -719.6293m 
    5.80000m -719.4842m 
    5.80400m -717.4166m 
    5.80800m -715.3490m 
    5.81200m -713.2815m 
    5.81600m -711.2139m 
    5.82000m -709.1464m 
    5.82400m -707.0788m 
    5.82800m -705.0113m 
    5.83200m -702.9437m 
    5.83600m -700.8762m 
    5.84000m -698.8086m 
    5.84400m -696.7411m 
    5.84800m -694.6735m 
    5.85200m -692.6060m 
    5.85600m -690.5384m 
    5.86000m -688.4709m 
    5.86400m -686.4033m 
    5.86800m -684.3357m 
    5.87200m -682.2682m 
    5.87600m -680.2006m 
    5.88000m -678.1331m 
    5.88400m -676.0655m 
    5.88800m -673.9980m 
    5.89200m -671.9304m 
    5.89600m -669.8629m 
    5.90000m -667.7953m 
    5.90400m -665.7278m 
    5.90800m -663.6602m 
    5.91200m -661.5782m 
    5.91600m -656.3666m 
    5.92000m -651.1551m 
    5.92400m -645.9435m 
    5.92800m -640.7319m 
    5.93200m -635.5203m 
    5.93600m -630.3088m 
    5.94000m -625.0972m 
    5.94400m -619.8856m 
    5.94800m -614.6740m 
    5.95200m -609.4624m 
    5.95600m -604.2509m 
    5.96000m -599.0393m 
    5.96400m -593.8277m 
    5.96800m -588.6161m 
    5.97200m -583.4045m 
    5.97600m -578.1930m 
    5.98000m -572.9814m 
    5.98400m -567.7698m 
    5.98800m -562.5582m 
    5.99200m -557.3466m 
    5.99600m -552.1351m 
    6.00000m -546.9235m 
    6.00400m -541.7119m 
    6.00800m -536.5003m 
    6.01200m -530.7131m 
    6.01600m -523.6930m 
    6.02000m -516.6730m 
    6.02400m -509.6529m 
    6.02800m -502.6328m 
    6.03200m -495.6128m 
    6.03600m -488.5927m 
    6.04000m -481.5726m 
    6.04400m -474.5526m 
    6.04800m -467.5325m 
    6.05200m -460.5125m 
    6.05600m -453.4924m 
    6.06000m -446.4723m 
    6.06400m -439.4523m 
    6.06800m -432.4322m 
    6.07200m -425.4122m 
    6.07600m -418.3921m 
    6.08000m -411.3720m 
    6.08400m -404.3520m 
    6.08800m -397.3319m 
    6.09200m -390.3118m 
    6.09600m -383.2918m 
    6.10000m -376.2717m 
    6.10400m -369.2517m 
    6.10800m -362.2316m 
    6.11200m -355.4345m 
    6.11600m -348.8139m 
    6.12000m -342.1933m 
    6.12400m -335.5727m 
    6.12800m -328.9521m 
    6.13200m -322.3316m 
    6.13600m -315.7110m 
    6.14000m -309.0904m 
    6.14400m -302.4698m 
    6.14800m -295.8492m 
    6.15200m -289.2286m 
    6.15600m -282.6081m 
    6.16000m -275.9875m 
    6.16400m -269.3669m 
    6.16800m -262.7463m 
    6.17200m -256.1257m 
    6.17600m -249.5051m 
    6.18000m -242.8846m 
    6.18400m -236.2640m 
    6.18800m -229.6434m 
    6.19200m -223.0228m 
    6.19600m -216.4022m 
    6.20000m -209.7816m 
    6.20400m -203.1611m 
    6.20800m -196.5405m 
    6.21200m -189.9199m 
    6.21600m -183.2993m 
    6.22000m -176.6787m 
    6.22400m -170.0581m 
    6.22800m -163.4376m 
    6.23200m -156.8170m 
    6.23600m -150.1964m 
    6.24000m -143.5758m 
    6.24400m -136.9552m 
    6.24800m -131.5702m 
    6.25200m -126.6561m 
    6.25600m -121.7420m 
    6.26000m -116.8279m 
    6.26400m -111.9138m 
    6.26800m -106.9997m 
    6.27200m -102.0856m 
    6.27600m  -97.1715m 
    6.28000m  -92.2574m 
    6.28400m  -87.3433m 
    6.28800m  -82.4292m 
    6.29200m  -77.5151m 
    6.29600m  -72.6010m 
    6.30000m  -67.6869m 
    6.30400m  -62.7728m 
    6.30800m  -57.8587m 
    6.31200m  -52.9446m 
    6.31600m  -48.0305m 
    6.32000m  -43.1164m 
    6.32400m  -38.2023m 
    6.32800m  -33.2882m 
    6.33200m  -28.3740m 
    6.33600m  -23.4599m 
    6.34000m  -18.5458m 
    6.34400m  -13.6317m 
    6.34800m   -8.7176m 
    6.35200m   -3.8035m 
    6.35600m   80.2848u 
    6.36000m    3.3134m 
    6.36400m    6.5465m 
    6.36800m    9.7795m 
    6.37200m   13.0126m 
    6.37600m   16.2457m 
    6.38000m   19.4788m 
    6.38400m   22.7119m 
    6.38800m   25.9450m 
    6.39200m   29.1781m 
    6.39600m   32.4111m 
    6.40000m   35.6442m 
    6.40400m   38.8773m 
    6.40800m   42.1104m 
    6.41200m   45.3435m 
    6.41600m   48.5766m 
    6.42000m   51.8097m 
    6.42400m   55.0427m 
    6.42800m   58.2758m 
    6.43200m   61.5089m 
    6.43600m   64.7420m 
    6.44000m   67.9751m 
    6.44400m   71.2082m 
    6.44800m   74.4413m 
    6.45200m   77.6744m 
    6.45600m   80.9074m 
    6.46000m   84.1405m 
    6.46400m   87.3736m 
    6.46800m   90.6067m 
    6.47200m   93.8398m 
    6.47600m   97.0729m 
    6.48000m  100.3060m 
    6.48400m  103.5390m 
    6.48800m  106.7721m 
    6.49200m  109.7775m 
    6.49600m  111.6712m 
    6.50000m  113.5649m 
    6.50400m  115.4585m 
    6.50800m  117.3522m 
    6.51200m  119.2459m 
    6.51600m  121.1396m 
    6.52000m  123.0332m 
    6.52400m  124.9269m 
    6.52800m  126.8206m 
    6.53200m  128.7142m 
    6.53600m  130.6079m 
    6.54000m  132.5016m 
    6.54400m  134.3953m 
    6.54800m  136.2889m 
    6.55200m  138.1826m 
    6.55600m  140.0763m 
    6.56000m  141.9699m 
    6.56400m  143.8636m 
    6.56800m  145.7573m 
    6.57200m  147.6510m 
    6.57600m  149.5446m 
    6.58000m  151.4383m 
    6.58400m  153.3320m 
    6.58800m  155.2256m 
    6.59200m  157.1193m 
    6.59600m  159.0130m 
    6.60000m  160.9067m 
    6.60400m  162.8003m 
    6.60800m  163.8810m 
    6.61200m  164.6454m 
    6.61600m  165.4098m 
    6.62000m  166.1742m 
    6.62400m  166.9386m 
    6.62800m  167.7030m 
    6.63200m  168.4674m 
    6.63600m  169.2318m 
    6.64000m  169.9962m 
    6.64400m  170.7606m 
    6.64800m  171.5250m 
    6.65200m  172.2894m 
    6.65600m  173.0538m 
    6.66000m  173.8182m 
    6.66400m  174.5826m 
    6.66800m  175.3470m 
    6.67200m  176.1114m 
    6.67600m  176.8758m 
    6.68000m  177.6402m 
    6.68400m  178.4046m 
    6.68800m  179.1690m 
    6.69200m  179.9334m 
    6.69600m  180.6978m 
    6.70000m  181.4622m 
    6.70400m  182.2265m 
    6.70800m  182.9909m 
    6.71200m  183.7553m 
    6.71600m  184.5197m 
    6.72000m  185.2841m 
    6.72400m  186.0485m 
    6.72800m  186.6739m 
    6.73200m  186.3043m 
    6.73600m  185.9348m 
    6.74000m  185.5652m 
    6.74400m  185.1956m 
    6.74800m  184.8261m 
    6.75200m  184.4565m 
    6.75600m  184.0870m 
    6.76000m  183.7174m 
    6.76400m  183.3479m 
    6.76800m  182.9783m 
    6.77200m  182.6087m 
    6.77600m  182.2392m 
    6.78000m  181.8696m 
    6.78400m  181.5001m 
    6.78800m  181.1305m 
    6.79200m  180.7610m 
    6.79600m  180.3914m 
    6.80000m  180.0219m 
    6.80400m  179.6523m 
    6.80800m  179.2827m 
    6.81200m  178.9132m 
    6.81600m  178.5436m 
    6.82000m  178.1741m 
    6.82400m  177.8045m 
    6.82800m  177.4350m 
    6.83200m  177.0654m 
    6.83600m  176.6958m 
    6.84000m  176.3263m 
    6.84400m  175.9567m 
    6.84800m  175.5872m 
    6.85200m  175.2176m 
    6.85600m  174.8481m 
    6.86000m  174.4785m 
    6.86400m  174.1090m 
    6.86800m  173.7394m 
    6.87200m  172.8644m 
    6.87600m  171.5447m 
    6.88000m  170.2251m 
    6.88400m  168.9054m 
    6.88800m  167.5857m 
    6.89200m  166.2661m 
    6.89600m  164.9464m 
    6.90000m  163.6267m 
    6.90400m  162.3071m 
    6.90800m  160.9874m 
    6.91200m  159.6677m 
    6.91600m  158.3481m 
    6.92000m  157.0284m 
    6.92400m  155.7087m 
    6.92800m  154.3891m 
    6.93200m  153.0694m 
    6.93600m  151.7497m 
    6.94000m  150.4301m 
    6.94400m  149.1104m 
    6.94800m  147.7907m 
    6.95200m  146.4710m 
    6.95600m  145.1514m 
    6.96000m  143.8317m 
    6.96400m  142.5120m 
    6.96800m  141.1924m 
    6.97200m  139.8727m 
    6.97600m  138.5530m 
    6.98000m  137.2334m 
    6.98400m  135.9137m 
    6.98800m  134.5940m 
    6.99200m  133.1837m 
    6.99600m  131.3473m 
    7.00000m  129.5110m 
    7.00400m  127.6747m 
    7.00800m  125.8383m 
    7.01200m  124.0020m 
    7.01600m  122.1657m 
    7.02000m  120.3293m 
    7.02400m  118.4930m 
    7.02800m  116.6567m 
    7.03200m  114.8204m 
    7.03600m  112.9840m 
    7.04000m  111.1477m 
    7.04400m  109.3114m 
    7.04800m  107.4750m 
    7.05200m  105.6387m 
    7.05600m  103.8024m 
    7.06000m  101.9661m 
    7.06400m  100.1297m 
    7.06800m   98.2934m 
    7.07200m   96.4571m 
    7.07600m   94.6207m 
    7.08000m   92.7844m 
    7.08400m   90.9481m 
    7.08800m   89.1118m 
    7.09200m   87.2754m 
    7.09600m   85.4391m 
    7.10000m   83.6028m 
    7.10400m   81.7664m 
    7.10800m   79.9301m 
    7.11200m   78.0938m 
    7.11600m   76.2575m 
    7.12000m   74.4211m 
    7.12400m   72.5848m 
    7.12800m   70.7485m 
    7.13200m   68.9121m 
    7.13600m   67.0758m 
    7.14000m   65.2395m 
    7.14400m   63.6056m 
    7.14800m   62.0333m 
    7.15200m   60.4611m 
    7.15600m   58.8888m 
    7.16000m   57.3165m 
    7.16400m   55.7443m 
    7.16800m   54.1720m 
    7.17200m   52.5998m 
    7.17600m   51.0275m 
    7.18000m   49.4553m 
    7.18400m   47.8830m 
    7.18800m   46.3107m 
    7.19200m   44.7385m 
    7.19600m   43.1662m 
    7.20000m   41.5940m 
    7.20400m   40.0217m 
    7.20800m   38.4494m 
    7.21200m   36.8772m 
    7.21600m   35.3049m 
    7.22000m   33.7327m 
    7.22400m   32.1604m 
    7.22800m   30.5882m 
    7.23200m   29.0159m 
    7.23600m   27.4436m 
    7.24000m   25.8714m 
    7.24400m   24.2991m 
    7.24800m   22.7269m 
    7.25200m   21.1546m 
    7.25600m   19.5823m 
    7.26000m   18.0101m 
    7.26400m   16.4378m 
    7.26800m   14.8656m 
    7.27200m   13.2933m 
    7.27600m   11.7211m 
    7.28000m   10.1488m 
    7.28400m    8.5765m 
    7.28800m    7.2113m 
    7.29200m    6.4499m 
    7.29600m    5.6885m 
    7.30000m    4.9271m 
    7.30400m    4.1657m 
    7.30800m    3.4042m 
    7.31200m    2.6428m 
    7.31600m    1.8814m 
    7.32000m    1.1200m 
    7.32400m  358.5587u 
    7.32800m -402.8600u 
    7.33200m   -1.1643m 
    7.33600m   -1.9257m 
    7.34000m   -2.6871m 
    7.34400m   -3.4485m 
    7.34800m   -4.2100m 
    7.35200m   -4.9714m 
    7.35600m   -5.7328m 
    7.36000m   -6.4942m 
    7.36400m   -7.2556m 
    7.36800m   -8.0170m 
    7.37200m   -8.7785m 
    7.37600m   -9.5399m 
    7.38000m  -10.3013m 
    7.38400m  -11.0627m 
    7.38800m  -11.8241m 
    7.39200m  -12.5856m 
    7.39600m  -13.3470m 
    7.40000m  -14.1084m 
    7.40400m  -14.8698m 
    7.40800m  -15.6312m 
    7.41200m  -16.3927m 
    7.41600m  -17.1541m 
    7.42000m  -17.9155m 
    7.42400m  -18.6769m 
    7.42800m  -19.4383m 
    7.43200m  -20.1997m 
    7.43600m  -20.9612m 
    7.44000m  -21.7226m 
    7.44400m  -22.4840m 
    7.44800m  -23.2454m 
    7.45200m  -24.0068m 
    7.45600m  -24.7683m 
    7.46000m  -25.5297m 
    7.46400m  -26.2911m 
    7.46800m  -27.0525m 
    7.47200m  -27.8139m 
    7.47600m  -28.5754m 
    7.48000m  -29.2727m 
    7.48400m  -29.6186m 
    7.48800m  -29.9645m 
    7.49200m  -30.3103m 
    7.49600m  -30.6562m 
    7.50000m  -31.0021m 
    7.50400m  -31.3479m 
    7.50800m  -31.6938m 
    7.51200m  -32.0397m 
    7.51600m  -32.3855m 
    7.52000m  -32.7314m 
    7.52400m  -33.0773m 
    7.52800m  -33.4231m 
    7.53200m  -33.7690m 
    7.53600m  -34.1149m 
    7.54000m  -34.4608m 
    7.54400m  -34.8066m 
    7.54800m  -35.1525m 
    7.55200m  -35.4984m 
    7.55600m  -35.8442m 
    7.56000m  -36.1901m 
    7.56400m  -36.5360m 
    7.56800m  -36.8818m 
    7.57200m  -37.2277m 
    7.57600m  -37.5736m 
    7.58000m  -37.9194m 
    7.58400m  -38.2653m 
    7.58800m  -38.6112m 
    7.59200m  -38.9571m 
    7.59600m  -39.3029m 
    7.60000m  -39.6488m 
    7.60400m  -39.9947m 
    7.60800m  -40.3405m 
    7.61200m  -40.6864m 
    7.61600m  -41.0323m 
    7.62000m  -41.3781m 
    7.62400m  -41.7240m 
    7.62800m  -42.0699m 
    7.63200m  -42.4157m 
    7.63600m  -42.7616m 
    7.64000m  -43.1075m 
    7.64400m  -43.3111m 
    7.64800m  -43.4711m 
    7.65200m  -43.6310m 
    7.65600m  -43.7910m 
    7.66000m  -43.9509m 
    7.66400m  -44.1109m 
    7.66800m  -44.2708m 
    7.67200m  -44.4307m 
    7.67600m  -44.5907m 
    7.68000m  -44.7506m 
    7.68400m  -44.9106m 
    7.68800m  -45.0705m 
    7.69200m  -45.2305m 
    7.69600m  -45.3904m 
    7.70000m  -45.5504m 
    7.70400m  -45.7103m 
    7.70800m  -45.8702m 
    7.71200m  -46.0302m 
    7.71600m  -46.1901m 
    7.72000m  -46.3501m 
    7.72400m  -46.5100m 
    7.72800m  -46.6700m 
    7.73200m  -46.8299m 
    7.73600m  -46.9899m 
    7.74000m  -47.1498m 
    7.74400m  -47.3098m 
    7.74800m  -47.4697m 
    7.75200m  -47.6296m 
    7.75600m  -47.7896m 
    7.76000m  -47.9495m 
    7.76400m  -48.1095m 
    7.76800m  -48.2694m 
    7.77200m  -48.4294m 
    7.77600m  -48.5893m 
    7.78000m  -48.7493m 
    7.78400m  -48.9092m 
    7.78800m  -49.0691m 
    7.79200m  -49.2291m 
    7.79600m  -49.3890m 
    7.80000m  -49.5490m 
    7.80400m  -49.7089m 
    7.80800m  -49.8689m 
    7.81200m  -50.0103m 
    7.81600m  -49.6359m 
    7.82000m  -49.2615m 
    7.82400m  -48.8872m 
    7.82800m  -48.5128m 
    7.83200m  -48.1384m 
    7.83600m  -47.7640m 
    7.84000m  -47.3897m 
    7.84400m  -47.0153m 
    7.84800m  -46.6409m 
    7.85200m  -46.2665m 
    7.85600m  -45.8922m 
    7.86000m  -45.5178m 
    7.86400m  -45.1434m 
    7.86800m  -44.7690m 
    7.87200m  -44.3947m 
    7.87600m  -44.0203m 
    7.88000m  -43.6459m 
    7.88400m  -43.2715m 
    7.88800m  -42.8972m 
    7.89200m  -42.5228m 
    7.89600m  -42.1484m 
    7.90000m  -41.7740m 
    7.90400m  -41.3997m 
    7.90800m  -41.0253m 
    7.91200m  -40.6509m 
    7.91600m  -40.2765m 
    7.92000m  -39.9022m 
    7.92400m  -39.5278m 
    7.92800m  -39.1534m 
    7.93200m  -38.7790m 
    7.93600m  -38.4047m 
    7.94000m  -38.0303m 
    7.94400m  -37.6559m 
    7.94800m  -37.2815m 
    7.95200m  -36.9072m 
    7.95600m  -36.5328m 
    7.96000m  -36.1584m 
    7.96400m  -35.7840m 
    7.96800m  -35.4097m 
    7.97200m  -35.0353m 
    7.97600m  -34.6609m 
    7.98000m  -34.2866m 
    7.98400m  -33.9122m 
    7.98800m  -33.5378m 
    7.99200m  -33.1634m 
    7.99600m  -32.7891m 
    8.00000m  -32.4147m 
    8.00400m  -32.0403m 
    8.00800m  -31.6659m 
    8.01200m  -31.2916m 
    8.01600m  -30.9172m 
    8.02000m  -30.5428m 
    8.02400m  -30.1684m 
    8.02800m  -29.7941m 
    8.03200m  -29.4197m 
    8.03600m  -29.0453m 
    8.04000m  -28.6709m 
    8.04400m  -28.2966m 
    8.04800m  -27.9222m 
    8.05200m  -27.5478m 
    8.05600m  -27.1734m 
    8.06000m  -26.6158m 
    8.06400m  -26.0463m 
    8.06800m  -25.4768m 
    8.07200m  -24.9073m 
    8.07600m  -24.3378m 
    8.08000m  -23.7683m 
    8.08400m  -23.1987m 
    8.08800m  -22.6292m 
    8.09200m  -22.0597m 
    8.09600m  -21.4902m 
    8.10000m  -20.9207m 
    8.10400m  -20.3512m 
    8.10800m  -19.7817m 
    8.11200m  -19.2122m 
    8.11600m  -18.6427m 
    8.12000m  -18.0731m 
    8.12400m  -17.5036m 
    8.12800m  -16.9341m 
    8.13200m  -16.3646m 
    8.13600m  -15.7951m 
    8.14000m  -15.2256m 
    8.14400m  -14.6561m 
    8.14800m  -14.0866m 
    8.15200m  -13.5171m 
    8.15600m  -12.9475m 
    8.16000m  -12.3780m 
    8.16400m  -11.8085m 
    8.16800m  -11.2390m 
    8.17200m  -10.6695m 
    8.17600m  -10.1000m 
    8.18000m   -9.5305m 
    8.18400m   -8.9610m 
    8.18800m   -8.3915m 
    8.19200m   -7.8219m 
    8.19600m   -7.2524m 
    8.20000m   -6.6829m 
    8.20400m   -6.1134m 
    8.20800m   -5.5439m 
    8.21200m   -5.0295m 
    8.21600m   -4.8134m 
    8.22000m   -4.5972m 
    8.22400m   -4.3811m 
    8.22800m   -4.1650m 
    8.23200m   -3.9488m 
    8.23600m   -3.7327m 
    8.24000m   -3.5166m 
    8.24400m   -3.3005m 
    8.24800m   -3.0843m 
    8.25200m   -2.8682m 
    8.25600m   -2.6521m 
    8.26000m   -2.4360m 
    8.26400m   -2.2198m 
    8.26800m   -2.0037m 
    8.27200m   -1.7876m 
    8.27600m   -1.5715m 
    8.28000m   -1.3553m 
    8.28400m   -1.1392m 
    8.28800m -923.0770u 
    8.29200m -706.9506u 
    8.29600m -490.8241u 
    8.30000m -274.6977u 
    8.30400m  -58.5713u 
    8.30800m  157.5552u 
    8.31200m  373.6816u 
    8.31600m  589.8081u 
    8.32000m  805.9345u 
    8.32400m    1.0221m 
    8.32800m    1.2382m 
    8.33200m    1.4543m 
    8.33600m    1.6704m 
    8.34000m    1.8866m 
    8.34400m    2.1027m 
    8.34800m    2.3188m 
    8.35200m    2.5349m 
    8.35600m    2.7511m 
    8.36000m    2.9672m 
    8.36400m    3.1833m 
    8.36800m    3.3995m 
    8.37200m    3.6156m 
    8.37600m    3.8317m 
    8.38000m    4.0478m 
    8.38400m    4.2640m 
    8.38800m    4.4801m 
    8.39200m    4.6962m 
    8.39600m    4.9123m 
    8.40000m    5.1285m 
    8.40400m    5.3446m 
    8.40800m    5.5607m 
    8.41200m    5.7768m 
    8.41600m    5.9930m 
    8.42000m    6.2091m 
    8.42400m    6.4252m 
    8.42800m    6.6413m 
    8.43200m    6.8575m 
    8.43600m    7.0736m 
    8.44000m    7.2897m 
    8.44400m    7.5059m 
    8.44800m    7.7220m 
    8.45200m    7.9381m 
    8.45600m    8.1542m 
    8.46000m    8.3704m 
    8.46400m    8.5865m 
    8.46800m    8.8026m 
    8.47200m    8.9361m 
    8.47600m    8.9858m 
    8.48000m    9.0356m 
    8.48400m    9.0853m 
    8.48800m    9.1350m 
    8.49200m    9.1848m 
    8.49600m    9.2345m 
    8.50000m    9.2843m 
    8.50400m    9.3340m 
    8.50800m    9.3838m 
    8.51200m    9.4335m 
    8.51600m    9.4833m 
    8.52000m    9.5330m 
    8.52400m    9.5828m 
    8.52800m    9.6325m 
    8.53200m    9.6823m 
    8.53600m    9.7320m 
    8.54000m    9.7818m 
    8.54400m    9.8315m 
    8.54800m    9.8813m 
    8.55200m    9.9310m 
    8.55600m    9.9808m 
    8.56000m   10.0305m 
    8.56400m   10.0803m 
    8.56800m   10.1300m 
    8.57200m   10.1798m 
    8.57600m   10.2295m 
    8.58000m   10.2793m 
    8.58400m   10.3290m 
    8.58800m   10.3788m 
    8.59200m   10.4285m 
    8.59600m   10.4783m 
    8.60000m   10.5280m 
    8.60400m   10.5778m 
    8.60800m   10.6275m 
    8.61200m   10.6773m 
    8.61600m   10.7270m 
    8.62000m   10.7768m 
    8.62400m   10.8265m 
    8.62800m   10.8763m 
    8.63200m   10.9260m 
    8.63600m   10.9757m 
    8.64000m   11.0255m 
    8.64400m   11.0752m 
    8.64800m   11.1250m 
    8.65200m   11.1747m 
    8.65600m   11.2245m 
    8.66000m   11.2742m 
    8.66400m   11.3240m 
    8.66800m   11.3737m 
    8.67200m   11.4235m 
    8.67600m   11.4732m 
    8.68000m   11.5230m 
    8.68400m   11.5727m 
    8.68800m   11.6225m 
    8.69200m   11.6615m 
    8.69600m   11.6697m 
    8.70000m   11.6779m 
    8.70400m   11.6861m 
    8.70800m   11.6944m 
    8.71200m   11.7026m 
    8.71600m   11.7108m 
    8.72000m   11.7190m 
    8.72400m   11.7272m 
    8.72800m   11.7354m 
    8.73200m   11.7437m 
    8.73600m   11.7519m 
    8.74000m   11.7601m 
    8.74400m   11.7683m 
    8.74800m   11.7765m 
    8.75200m   11.7847m 
    8.75600m   11.7930m 
    8.76000m   11.8012m 
    8.76400m   11.8094m 
    8.76800m   11.8176m 
    8.77200m   11.8258m 
    8.77600m   11.8340m 
    8.78000m   11.8423m 
    8.78400m   11.8505m 
    8.78800m   11.8587m 
    8.79200m   11.8669m 
    8.79600m   11.8751m 
    8.80000m   11.8833m 
    8.80400m   11.8916m 
    8.80800m   11.8998m 
    8.81200m   11.9080m 
    8.81600m   11.9162m 
    8.82000m   11.9244m 
    8.82400m   11.9326m 
    8.82800m   11.9409m 
    8.83200m   11.9491m 
    8.83600m   11.9573m 
    8.84000m   11.9655m 
    8.84400m   11.9737m 
    8.84800m   11.9819m 
    8.85200m   11.9902m 
    8.85600m   11.9984m 
    8.86000m   12.0066m 
    8.86400m   12.0148m 
    8.86800m   12.0230m 
    8.87200m   12.0312m 
    8.87600m   12.0394m 
    8.88000m   12.0477m 
    8.88400m   12.0559m 
    8.88800m   12.0641m 
    8.89200m   12.0723m 
    8.89600m   12.0805m 
    8.90000m   12.0251m 
    8.90400m   11.9137m 
    8.90800m   11.8023m 
    8.91200m   11.6909m 
    8.91600m   11.5795m 
    8.92000m   11.4681m 
    8.92400m   11.3567m 
    8.92800m   11.2453m 
    8.93200m   11.1339m 
    8.93600m   11.0225m 
    8.94000m   10.9111m 
    8.94400m   10.7997m 
    8.94800m   10.6883m 
    8.95200m   10.5769m 
    8.95600m   10.4655m 
    8.96000m   10.3541m 
    8.96400m   10.2427m 
    8.96800m   10.1313m 
    8.97200m   10.0199m 
    8.97600m    9.9085m 
    8.98000m    9.7971m 
    8.98400m    9.6857m 
    8.98800m    9.5743m 
    8.99200m    9.4629m 
    8.99600m    9.3515m 
    9.00000m    9.2401m 
    9.00400m    9.1159m 
    9.00800m    8.9917m 
    9.01200m    8.8675m 
    9.01600m    8.7433m 
    9.02000m    8.6192m 
    9.02400m    8.4950m 
    9.02800m    8.3708m 
    9.03200m    8.2466m 
    9.03600m    8.1224m 
    9.04000m    8.0024m 
    9.04400m    7.8842m 
    9.04800m    7.7659m 
    9.05200m    7.6477m 
    9.05600m    7.5762m 
    9.06000m    7.5077m 
    9.06400m    7.4392m 
    9.06800m    7.3707m 
    9.07200m    7.3022m 
    9.07600m    7.2337m 
    9.08000m    7.1652m 
    9.08400m    7.0967m 
    9.08800m    7.0282m 
    9.09200m    6.9597m 
    9.09600m    6.8912m 
    9.10000m    6.8227m 
    9.10400m    7.0174m 
    9.10800m    7.2439m 
    9.11200m    7.4703m 
    9.11600m    7.6968m 
    9.12000m    7.9233m 
    9.12400m    8.1498m 
    9.12800m    8.3763m 
    9.13200m    8.6027m 
    9.13600m    8.8292m 
    9.14000m    9.0557m 
    9.14400m    9.2822m 
    9.14800m    9.5087m 
    9.15200m    9.7351m 
    9.15600m    9.9616m 
    9.16000m   10.1881m 
    9.16400m   10.4146m 
    9.16800m   10.6410m 
    9.17200m   11.8788m 
    9.17600m   13.7990m 
    9.18000m   15.7192m 
    9.18400m   17.6394m 
    9.18800m   19.5596m 
    9.19200m   21.4799m 
    9.19600m   23.4001m 
    9.20000m   25.3203m 
    9.20400m   27.2405m 
    9.20800m   29.1607m 
    9.21200m   31.0809m 
    9.21600m   33.0011m 
    9.22000m   34.9214m 
    9.22400m   36.8416m 
    9.22800m   38.7618m 
    9.23200m   40.6820m 
    9.23600m   42.6022m 
    9.24000m   44.5224m 
    9.24400m   46.4427m 
    9.24800m   48.3629m 
    9.25200m   50.2831m 
    9.25600m   52.2033m 
    9.26000m   54.1235m 
    9.26400m   56.0437m 
    9.26800m   57.9639m 
    9.27200m   59.8842m 
    9.27600m   65.3037m 
    9.28000m   71.3734m 
    9.28400m   77.4432m 
    9.28800m   83.5129m 
    9.29200m   89.5827m 
    9.29600m   95.6525m 
    9.30000m  101.7222m 
    9.30400m  107.7920m 
    9.30800m  113.8617m 
    9.31200m  119.9315m 
    9.31600m  126.0013m 
    9.32000m  132.0710m 
    9.32400m  138.1408m 
    9.32800m  144.2105m 
    9.33200m  150.2803m 
    9.33600m  156.3501m 
    9.34000m  162.4198m 
    9.34400m  168.4896m 
    9.34800m  174.5593m 
    9.35200m  180.6291m 
    9.35600m  186.6989m 
    9.36000m  192.7686m 
    9.36400m  202.1015m 
    9.36800m  214.4924m 
    9.37200m  226.8832m 
    9.37600m  239.2741m 
    9.38000m  251.6649m 
    9.38400m  264.0558m 
    9.38800m  276.4467m 
    9.39200m  288.8375m 
    9.39600m  301.2284m 
    9.40000m  313.6192m 
    9.40400m  326.0101m 
    9.40800m  338.4009m 
    9.41200m  350.7918m 
    9.41600m  363.1826m 
    9.42000m  375.5735m 
    9.42400m  387.9644m 
    9.42800m  400.3552m 
    9.43200m  412.7461m 
    9.43600m  425.1369m 
    9.44000m  437.5278m 
    9.44400m  449.9186m 
    9.44800m  462.3095m 
    9.45200m  476.7075m 
    9.45600m  494.6990m 
    9.46000m  512.6906m 
    9.46400m  530.6822m 
    9.46800m  548.6737m 
    9.47200m  566.6653m 
    9.47600m  584.6569m 
    9.48000m  602.6484m 
    9.48400m  620.6400m 
    9.48800m  638.6316m 
    9.49200m  656.6231m 
    9.49600m  674.6147m 
    9.50000m  692.6063m 
    9.50400m  713.5855m 
    9.50800m  734.5648m 
    9.51200m  755.5440m 
    9.51600m  776.6794m 
    9.52000m  798.0826m 
    9.52400m  819.4858m 
    9.52800m  841.1422m 
    9.53200m  864.0415m 
    9.53600m  886.9409m 
    9.54000m  909.8402m 
    9.54400m  932.7396m 
    9.54800m  955.6389m 
    9.55200m  978.5383m 
    9.55600m    1.0014  
    9.56000m    1.0243  
    9.56400m    1.0472  
    9.56800m    1.0709  
    9.57200m    1.0960  
    9.57600m    1.1211  
    9.58000m    1.1462  
    9.58400m    1.1712  
    9.58800m    1.1963  
    9.59200m    1.2214  
    9.59600m    1.2464  
    9.60000m    1.2715  
    9.60400m    1.2966  
    9.60800m    1.3216  
    9.61200m    1.3467  
    9.61600m    1.3718  
    9.62000m    1.3969  
    9.62400m    1.4219  
    9.62800m    1.4470  
    9.63200m    1.4721  
    9.63600m    1.4971  
    9.64000m    1.5222  
    9.64400m    1.5476  
    9.64800m    1.5735  
    9.65200m    1.5995  
    9.65600m    1.6254  
    9.66000m    1.6513  
    9.66400m    1.6773  
    9.66800m    1.7032  
    9.67200m    1.7291  
    9.67600m    1.7551  
    9.68000m    1.7810  
    9.68400m    1.8069  
    9.68800m    1.8329  
    9.69200m    1.8588  
    9.69600m    1.8847  
    9.70000m    1.9107  
    9.70400m    1.9366  
    9.70800m    1.9625  
    9.71200m    1.9885  
    9.71600m    2.0144  
    9.72000m    2.0404  
    9.72400m    2.0663  
    9.72800m    2.0922  
    9.73200m    2.1182  
    9.73600m    2.1424  
    9.74000m    2.1661  
    9.74400m    2.1898  
    9.74800m    2.2135  
    9.75200m    2.2372  
    9.75600m    2.2609  
    9.76000m    2.2846  
    9.76400m    2.3083  
    9.76800m    2.3320  
    9.77200m    2.3557  
    9.77600m    2.3794  
    9.78000m    2.4031  
    9.78400m    2.4268  
    9.78800m    2.4505  
    9.79200m    2.4742  
    9.79600m    2.4979  
    9.80000m    2.5216  
    9.80400m    2.5454  
    9.80800m    2.5691  
    9.81200m    2.5928  
    9.81600m    2.6165  
    9.82000m    2.6402  
    9.82400m    2.6639  
    9.82800m    2.6876  
    9.83200m    2.7113  
    9.83600m    2.7350  
    9.84000m    2.7542  
    9.84400m    2.7734  
    9.84800m    2.7926  
    9.85200m    2.8118  
    9.85600m    2.8310  
    9.86000m    2.8502  
    9.86400m    2.8693  
    9.86800m    2.8885  
    9.87200m    2.9077  
    9.87600m    2.9269  
    9.88000m    2.9461  
    9.88400m    2.9653  
    9.88800m    2.9844  
    9.89200m    3.0036  
    9.89600m    3.0228  
    9.90000m    3.0420  
    9.90400m    3.0612  
    9.90800m    3.0804  
    9.91200m    3.0995  
    9.91600m    3.1183  
    9.92000m    3.1315  
    9.92400m    3.1447  
    9.92800m    3.1580  
    9.93200m    3.1712  
    9.93600m    3.1844  
    9.94000m    3.1977  
    9.94400m    3.2109  
    9.94800m    3.2242  
    9.95200m    3.2374  
    9.95600m    3.2506  
    9.96000m    3.2639  
    9.96400m    3.2771  
    9.96800m    3.2903  
    9.97200m    3.3036  
    9.97600m    3.3168  
    9.98000m    3.3300  
    9.98400m    3.3433  
    9.98800m    3.3565  
    9.99200m    3.3697  
    9.99600m    3.3830  
   10.00000m    3.3962  
   10.00400m    3.4094  
   10.00800m    3.4227  
   10.01200m    3.4359  
   10.01600m    3.4479  
   10.02000m    3.4552  
   10.02400m    3.4625  
   10.02800m    3.4698  
   10.03200m    3.4771  
   10.03600m    3.4844  
   10.04000m    3.4917  
   10.04400m    3.4990  
   10.04800m    3.5063  
   10.05200m    3.5136  
   10.05600m    3.5209  
   10.06000m    3.5282  
   10.06400m    3.5355  
   10.06800m    3.5428  
   10.07200m    3.5501  
   10.07600m    3.5574  
   10.08000m    3.5647  
   10.08400m    3.5720  
   10.08800m    3.5793  
   10.09200m    3.5866  
   10.09600m    3.5939  
   10.10000m    3.6012  
   10.10400m    3.6085  
   10.10800m    3.6158  
   10.11200m    3.6213  
   10.11600m    3.6247  
   10.12000m    3.6280  
   10.12400m    3.6314  
   10.12800m    3.6348  
   10.13200m    3.6382  
   10.13600m    3.6415  
   10.14000m    3.6449  
   10.14400m    3.6483  
   10.14800m    3.6516  
   10.15200m    3.6550  
   10.15600m    3.6584  
   10.16000m    3.6617  
   10.16400m    3.6651  
   10.16800m    3.6685  
   10.17200m    3.6719  
   10.17600m    3.6752  
   10.18000m    3.6786  
   10.18400m    3.6820  
   10.18800m    3.6853  
   10.19200m    3.6887  
   10.19600m    3.6921  
   10.20000m    3.6955  
   10.20400m    3.6987  
   10.20800m    3.6994  
   10.21200m    3.7002  
   10.21600m    3.7009  
   10.22000m    3.7016  
   10.22400m    3.7024  
   10.22800m    3.7031  
   10.23200m    3.7038  
   10.23600m    3.7046  
   10.24000m    3.7053  
   10.24400m    3.7060  
   10.24800m    3.7068  
   10.25200m    3.7075  
   10.25600m    3.7082  
   10.26000m    3.7090  
   10.26400m    3.7097  
   10.26800m    3.7104  
   10.27200m    3.7112  
   10.27600m    3.7119  
   10.28000m    3.7126  
   10.28400m    3.7134  
   10.28800m    3.7141  
   10.29200m    3.7148  
   10.29600m    3.7156  
   10.30000m    3.7163  
   10.30400m    3.7170  
   10.30800m    3.7160  
   10.31200m    3.7137  
   10.31600m    3.7115  
   10.32000m    3.7092  
   10.32400m    3.7070  
   10.32800m    3.7047  
   10.33200m    3.7025  
   10.33600m    3.7002  
   10.34000m    3.6980  
   10.34400m    3.6957  
   10.34800m    3.6935  
   10.35200m    3.6912  
   10.35600m    3.6890  
   10.36000m    3.6867  
   10.36400m    3.6845  
   10.36800m    3.6822  
   10.37200m    3.6800  
   10.37600m    3.6777  
   10.38000m    3.6755  
   10.38400m    3.6732  
   10.38800m    3.6710  
   10.39200m    3.6687  
   10.39600m    3.6665  
   10.40000m    3.6642  
   10.40400m    3.6620  
   10.40800m    3.6597  
   10.41200m    3.6575  
   10.41600m    3.6552  
   10.42000m    3.6530  
   10.42400m    3.6490  
   10.42800m    3.6436  
   10.43200m    3.6383  
   10.43600m    3.6330  
   10.44000m    3.6276  
   10.44400m    3.6223  
   10.44800m    3.6169  
   10.45200m    3.6116  
   10.45600m    3.6063  
   10.46000m    3.6009  
   10.46400m    3.5956  
   10.46800m    3.5903  
   10.47200m    3.5849  
   10.47600m    3.5796  
   10.48000m    3.5743  
   10.48400m    3.5689  
   10.48800m    3.5636  
   10.49200m    3.5583  
   10.49600m    3.5529  
   10.50000m    3.5476  
   10.50400m    3.5423  
   10.50800m    3.5369  
   10.51200m    3.5316  
   10.51600m    3.5262  
   10.52000m    3.5203  
   10.52400m    3.5133  
   10.52800m    3.5063  
   10.53200m    3.4993  
   10.53600m    3.4923  
   10.54000m    3.4852  
   10.54400m    3.4782  
   10.54800m    3.4712  
   10.55200m    3.4642  
   10.55600m    3.4572  
   10.56000m    3.4502  
   10.56400m    3.4432  
   10.56800m    3.4362  
   10.57200m    3.4292  
   10.57600m    3.4222  
   10.58000m    3.4152  
   10.58400m    3.4082  
   10.58800m    3.4011  
   10.59200m    3.3941  
   10.59600m    3.3871  
   10.60000m    3.3801  
   10.60400m    3.3731  
   10.60800m    3.3661  
   10.61200m    3.3591  
   10.61600m    3.3521  
   10.62000m    3.3452  
   10.62400m    3.3386  
   10.62800m    3.3320  
   10.63200m    3.3255  
   10.63600m    3.3189  
   10.64000m    3.3124  
   10.64400m    3.3058  
   10.64800m    3.2993  
   10.65200m    3.2927  
   10.65600m    3.2862  
   10.66000m    3.2796  
   10.66400m    3.2731  
   10.66800m    3.2665  
   10.67200m    3.2600  
   10.67600m    3.2534  
   10.68000m    3.2468  
   10.68400m    3.2403  
   10.68800m    3.2337  
   10.69200m    3.2272  
   10.69600m    3.2206  
   10.70000m    3.2141  
   10.70400m    3.2075  
   10.70800m    3.2010  
   10.71200m    3.1944  
   10.71600m    3.1879  
   10.72000m    3.1813  
   10.72400m    3.1748  
   10.72800m    3.1682  
   10.73200m    3.1616  
   10.73600m    3.1551  
   10.74000m    3.1485  
   10.74400m    3.1420  
   10.74800m    3.1354  
   10.75200m    3.1294  
   10.75600m    3.1246  
   10.76000m    3.1197  
   10.76400m    3.1149  
   10.76800m    3.1100  
   10.77200m    3.1051  
   10.77600m    3.1003  
   10.78000m    3.0954  
   10.78400m    3.0906  
   10.78800m    3.0857  
   10.79200m    3.0809  
   10.79600m    3.0760  
   10.80000m    3.0711  
   10.80400m    3.0663  
   10.80800m    3.0614  
   10.81200m    3.0566  
   10.81600m    3.0517  
   10.82000m    3.0469  
   10.82400m    3.0420  
   10.82800m    3.0371  
   10.83200m    3.0323  
   10.83600m    3.0274  
   10.84000m    3.0226  
   10.84400m    3.0177  
   10.84800m    3.0129  
   10.85200m    3.0080  
   10.85600m    3.0031  
   10.86000m    2.9983  
   10.86400m    2.9946  
   10.86800m    2.9914  
   10.87200m    2.9882  
   10.87600m    2.9850  
   10.88000m    2.9818  
   10.88400m    2.9786  
   10.88800m    2.9754  
   10.89200m    2.9722  
   10.89600m    2.9690  
   10.90000m    2.9658  
   10.90400m    2.9626  
   10.90800m    2.9594  
   10.91200m    2.9562  
   10.91600m    2.9530  
   10.92000m    2.9498  
   10.92400m    2.9466  
   10.92800m    2.9434  
   10.93200m    2.9402  
   10.93600m    2.9370  
   10.94000m    2.9338  
   10.94400m    2.9306  
   10.94800m    2.9274  
   10.95200m    2.9242  
   10.95600m    2.9210  
   10.96000m    2.9178  
   10.96400m    2.9146  
   10.96800m    2.9114  
   10.97200m    2.9081  
   10.97600m    2.9049  
   10.98000m    2.9017  
   10.98400m    2.8985  
   10.98800m    2.8953  
   10.99200m    2.8921  
   10.99600m    2.8891  
   11.00000m    2.8872  
   11.00400m    2.8853  
   11.00800m    2.8835  
   11.01200m    2.8816  
   11.01600m    2.8798  
   11.02000m    2.8779  
   11.02400m    2.8761  
   11.02800m    2.8742  
   11.03200m    2.8724  
   11.03600m    2.8705  
   11.04000m    2.8687  
   11.04400m    2.8668  
   11.04800m    2.8649  
   11.05200m    2.8631  
   11.05600m    2.8612  
   11.06000m    2.8594  
   11.06400m    2.8575  
   11.06800m    2.8557  
   11.07200m    2.8538  
   11.07600m    2.8520  
   11.08000m    2.8501  
   11.08400m    2.8482  
   11.08800m    2.8464  
   11.09200m    2.8445  
   11.09600m    2.8427  
   11.10000m    2.8408  
   11.10400m    2.8390  
   11.10800m    2.8371  
   11.11200m    2.8354  
   11.11600m    2.8347  
   11.12000m    2.8340  
   11.12400m    2.8333  
   11.12800m    2.8325  
   11.13200m    2.8318  
   11.13600m    2.8311  
   11.14000m    2.8304  
   11.14400m    2.8297  
   11.14800m    2.8290  
   11.15200m    2.8283  
   11.15600m    2.8276  
   11.16000m    2.8269  
   11.16400m    2.8261  
   11.16800m    2.8254  
   11.17200m    2.8247  
   11.17600m    2.8240  
   11.18000m    2.8233  
   11.18400m    2.8226  
   11.18800m    2.8219  
   11.19200m    2.8212  
   11.19600m    2.8204  
   11.20000m    2.8197  
   11.20400m    2.8190  
   11.20800m    2.8183  
   11.21200m    2.8176  
   11.21600m    2.8169  
   11.22000m    2.8162  
   11.22400m    2.8155  
   11.22800m    2.8147  
   11.23200m    2.8140  
   11.23600m    2.8143  
   11.24000m    2.8147  
   11.24400m    2.8151  
   11.24800m    2.8155  
   11.25200m    2.8159  
   11.25600m    2.8163  
   11.26000m    2.8168  
   11.26400m    2.8172  
   11.26800m    2.8176  
   11.27200m    2.8180  
   11.27600m    2.8184  
   11.28000m    2.8188  
   11.28400m    2.8192  
   11.28800m    2.8196  
   11.29200m    2.8200  
   11.29600m    2.8204  
   11.30000m    2.8208  
   11.30400m    2.8212  
   11.30800m    2.8216  
   11.31200m    2.8220  
   11.31600m    2.8224  
   11.32000m    2.8228  
   11.32400m    2.8232  
   11.32800m    2.8236  
   11.33200m    2.8240  
   11.33600m    2.8244  
   11.34000m    2.8248  
   11.34400m    2.8252  
   11.34800m    2.8256  
   11.35200m    2.8260  
   11.35600m    2.8264  
   11.36000m    2.8268  
   11.36400m    2.8272  
   11.36800m    2.8276  
   11.37200m    2.8280  
   11.37600m    2.8284  
   11.38000m    2.8292  
   11.38400m    2.8306  
   11.38800m    2.8319  
   11.39200m    2.8333  
   11.39600m    2.8346  
   11.40000m    2.8359  
   11.40400m    2.8373  
   11.40800m    2.8386  
   11.41200m    2.8399  
   11.41600m    2.8413  
   11.42000m    2.8426  
   11.42400m    2.8439  
   11.42800m    2.8453  
   11.43200m    2.8466  
   11.43600m    2.8479  
   11.44000m    2.8493  
   11.44400m    2.8506  
   11.44800m    2.8519  
   11.45200m    2.8533  
   11.45600m    2.8546  
   11.46000m    2.8559  
   11.46400m    2.8573  
   11.46800m    2.8586  
   11.47200m    2.8599  
   11.47600m    2.8613  
   11.48000m    2.8626  
   11.48400m    2.8639  
   11.48800m    2.8653  
   11.49200m    2.8666  
   11.49600m    2.8679  
   11.50000m    2.8694  
   11.50400m    2.8713  
   11.50800m    2.8731  
   11.51200m    2.8749  
   11.51600m    2.8767  
   11.52000m    2.8786  
   11.52400m    2.8804  
   11.52800m    2.8822  
   11.53200m    2.8840  
   11.53600m    2.8859  
   11.54000m    2.8877  
   11.54400m    2.8895  
   11.54800m    2.8913  
   11.55200m    2.8932  
   11.55600m    2.8950  
   11.56000m    2.8968  
   11.56400m    2.8987  
   11.56800m    2.9005  
   11.57200m    2.9023  
   11.57600m    2.9041  
   11.58000m    2.9060  
   11.58400m    2.9078  
   11.58800m    2.9096  
   11.59200m    2.9114  
   11.59600m    2.9133  
   11.60000m    2.9151  
   11.60400m    2.9169  
   11.60800m    2.9187  
   11.61200m    2.9206  
   11.61600m    2.9224  
   11.62000m    2.9242  
   11.62400m    2.9260  
   11.62800m    2.9279  
   11.63200m    2.9297  
   11.63600m    2.9315  
   11.64000m    2.9333  
   11.64400m    2.9352  
   11.64800m    2.9370  
   11.65200m    2.9388  
   11.65600m    2.9405  
   11.66000m    2.9420  
   11.66400m    2.9435  
   11.66800m    2.9451  
   11.67200m    2.9466  
   11.67600m    2.9481  
   11.68000m    2.9497  
   11.68400m    2.9512  
   11.68800m    2.9528  
   11.69200m    2.9543  
   11.69600m    2.9558  
   11.70000m    2.9574  
   11.70400m    2.9589  
   11.70800m    2.9604  
   11.71200m    2.9620  
   11.71600m    2.9635  
   11.72000m    2.9650  
   11.72400m    2.9666  
   11.72800m    2.9681  
   11.73200m    2.9697  
   11.73600m    2.9712  
   11.74000m    2.9727  
   11.74400m    2.9743  
   11.74800m    2.9758  
   11.75200m    2.9773  
   11.75600m    2.9789  
   11.76000m    2.9804  
   11.76400m    2.9819  
   11.76800m    2.9835  
   11.77200m    2.9850  
   11.77600m    2.9865  
   11.78000m    2.9881  
   11.78400m    2.9896  
   11.78800m    2.9912  
   11.79200m    2.9927  
   11.79600m    2.9942  
   11.80000m    2.9955  
   11.80400m    2.9962  
   11.80800m    2.9970  
   11.81200m    2.9977  
   11.81600m    2.9984  
   11.82000m    2.9991  
   11.82400m    2.9998  
   11.82800m    3.0005  
   11.83200m    3.0012  
   11.83600m    3.0020  
   11.84000m    3.0027  
   11.84400m    3.0034  
   11.84800m    3.0041  
   11.85200m    3.0048  
   11.85600m    3.0055  
   11.86000m    3.0062  
   11.86400m    3.0070  
   11.86800m    3.0077  
   11.87200m    3.0084  
   11.87600m    3.0091  
   11.88000m    3.0098  
   11.88400m    3.0105  
   11.88800m    3.0113  
   11.89200m    3.0120  
   11.89600m    3.0127  
   11.90000m    3.0134  
   11.90400m    3.0141  
   11.90800m    3.0148  
   11.91200m    3.0155  
[...]
   17.19200m   24.4575m 
   17.19600m   25.9950m 
   17.20000m   27.5326m 
   17.20400m   29.0701m 
   17.20800m   30.6077m 
   17.21200m   32.1452m 
   17.21600m   33.6828m 
   17.22000m   35.2203m 
   17.22400m   36.7579m 
   17.22800m   38.2955m 
   17.23200m   39.8330m 
   17.23600m   41.3706m 
   17.24000m   42.9081m 
   17.24400m   44.4457m 
   17.24800m   45.9832m 
   17.25200m   47.5208m 
   17.25600m   49.0583m 
   17.26000m   54.3599m 
   17.26400m   59.6818m 
   17.26800m   65.0037m 
   17.27200m   70.3256m 
   17.27600m   75.6475m 
   17.28000m   80.9693m 
   17.28400m   86.2912m 
   17.28800m   91.6131m 
   17.29200m   96.9350m 
   17.29600m  102.2569m 
   17.30000m  107.5787m 
   17.30400m  112.9006m 
   17.30800m  118.2225m 
   17.31200m  123.5444m 
   17.31600m  128.8662m 
   17.32000m  134.1881m 
   17.32400m  139.5100m 
   17.32800m  144.8319m 
   17.33200m  150.1538m 
   17.33600m  155.4756m 
   17.34000m  160.7975m 
   17.34400m  166.1194m 
   17.34800m  171.4413m 
   17.35200m  179.2448m 
   17.35600m  190.5847m 
   17.36000m  201.9246m 
   17.36400m  213.2646m 
   17.36800m  224.6045m 
   17.37200m  235.9444m 
   17.37600m  247.2843m 
   17.38000m  258.6242m 
   17.38400m  269.9642m 
   17.38800m  281.3041m 
   17.39200m  292.6440m 
   17.39600m  303.9839m 
   17.40000m  315.3238m 
   17.40400m  326.6638m 
   17.40800m  338.0037m 
   17.41200m  349.3436m 
   17.41600m  360.6835m 
   17.42000m  372.0234m 
   17.42400m  383.3634m 
   17.42800m  394.7033m 
   17.43200m  406.0432m 
   17.43600m  417.3831m 
   17.44000m  433.2429m 
   17.44400m  450.5701m 
   17.44800m  467.8974m 
   17.45200m  485.2246m 
   17.45600m  502.5519m 
   17.46000m  519.8791m 
   17.46400m  537.2064m 
   17.46800m  554.5336m 
   17.47200m  571.8609m 
   17.47600m  589.1881m 
   17.48000m  606.5154m 
   17.48400m  623.8426m 
   17.48800m  641.1699m 
   17.49200m  658.4971m 
   17.49600m  675.8244m 
   17.50000m  693.1516m 
   17.50400m  713.9607m 
   17.50800m  734.7698m 
   17.51200m  755.5789m 
   17.51600m  776.7204m 
   17.52000m  798.0022m 
   17.52400m  819.2840m 
   17.52800m  840.9192m 
   17.53200m  863.8731m 
   17.53600m  886.8271m 
   17.54000m  909.7811m 
   17.54400m  932.7350m 
   17.54800m  955.6890m 
   17.55200m  978.6430m 
   17.55600m    1.0016  
   17.56000m    1.0246  
   17.56400m    1.0475  
   17.56800m    1.0705  
   17.57200m    1.0941  
   17.57600m    1.1193  
   17.58000m    1.1445  
   17.58400m    1.1698  
   17.58800m    1.1950  
   17.59200m    1.2202  
   17.59600m    1.2454  
   17.60000m    1.2706  
   17.60400m    1.2958  
   17.60800m    1.3210  
   17.61200m    1.3462  
   17.61600m    1.3715  
   17.62000m    1.3967  
   17.62400m    1.4219  
   17.62800m    1.4471  
   17.63200m    1.4723  
   17.63600m    1.4975  
   17.64000m    1.5227  
   17.64400m    1.5479  
   17.64800m    1.5734  
   17.65200m    1.5994  
   17.65600m    1.6253  
   17.66000m    1.6512  
   17.66400m    1.6772  
   17.66800m    1.7031  
   17.67200m    1.7291  
   17.67600m    1.7550  
   17.68000m    1.7809  
   17.68400m    1.8069  
   17.68800m    1.8328  
   17.69200m    1.8588  
   17.69600m    1.8847  
   17.70000m    1.9106  
   17.70400m    1.9366  
   17.70800m    1.9625  
   17.71200m    1.9885  
   17.71600m    2.0144  
   17.72000m    2.0403  
   17.72400m    2.0663  
   17.72800m    2.0922  
   17.73200m    2.1182  
   17.73600m    2.1441  
   17.74000m    2.1692  
   17.74400m    2.1927  
   17.74800m    2.2162  
   17.75200m    2.2397  
   17.75600m    2.2632  
   17.76000m    2.2868  
   17.76400m    2.3103  
   17.76800m    2.3338  
   17.77200m    2.3573  
   17.77600m    2.3808  
   17.78000m    2.4043  
   17.78400m    2.4278  
   17.78800m    2.4513  
   17.79200m    2.4748  
   17.79600m    2.4983  
   17.80000m    2.5219  
   17.80400m    2.5454  
   17.80800m    2.5689  
   17.81200m    2.5924  
   17.81600m    2.6159  
   17.82000m    2.6394  
   17.82400m    2.6629  
   17.82800m    2.6864  
   17.83200m    2.7099  
   17.83600m    2.7334  
   17.84000m    2.7570  
   17.84400m    2.7769  
   17.84800m    2.7957  
   17.85200m    2.8146  
   17.85600m    2.8334  
   17.86000m    2.8522  
   17.86400m    2.8710  
   17.86800m    2.8899  
   17.87200m    2.9087  
   17.87600m    2.9275  
   17.88000m    2.9463  
   17.88400m    2.9652  
   17.88800m    2.9840  
   17.89200m    3.0028  
   17.89600m    3.0217  
   17.90000m    3.0405  
   17.90400m    3.0593  
   17.90800m    3.0781  
   17.91200m    3.0970  
   17.91600m    3.1158  
   17.92000m    3.1346  
   17.92400m    3.1489  
   17.92800m    3.1618  
   17.93200m    3.1746  
   17.93600m    3.1874  
   17.94000m    3.2002  
   17.94400m    3.2130  
   17.94800m    3.2258  
   17.95200m    3.2387  
   17.95600m    3.2515  
   17.96000m    3.2643  
   17.96400m    3.2771  
   17.96800m    3.2899  
   17.97200m    3.3027  
   17.97600m    3.3155  
   17.98000m    3.3284  
   17.98400m    3.3412  
   17.98800m    3.3540  
   17.99200m    3.3668  
   17.99600m    3.3796  
   18.00000m    3.3924  
   18.00400m    3.4053  
   18.00800m    3.4181  
   18.01200m    3.4309  
   18.01600m    3.4437  
   18.02000m    3.4565  
   18.02400m    3.4659  
   18.02800m    3.4729  
   18.03200m    3.4799  
   18.03600m    3.4868  
   18.04000m    3.4938  
   18.04400m    3.5008  
   18.04800m    3.5078  
   18.05200m    3.5148  
   18.05600m    3.5218  
   18.06000m    3.5288  
   18.06400m    3.5358  
   18.06800m    3.5428  
   18.07200m    3.5498  
   18.07600m    3.5567  
   18.08000m    3.5637  
   18.08400m    3.5707  
   18.08800m    3.5777  
   18.09200m    3.5847  
   18.09600m    3.5917  
   18.10000m    3.5987  
   18.10400m    3.6057  
   18.10800m    3.6127  
   18.11200m    3.6197  
   18.11600m    3.6260  
   18.12000m    3.6292  
   18.12400m    3.6324  
   18.12800m    3.6356  
   18.13200m    3.6388  
   18.13600m    3.6420  
   18.14000m    3.6452  
   18.14400m    3.6484  
   18.14800m    3.6516  
   18.15200m    3.6548  
   18.15600m    3.6580  
   18.16000m    3.6612  
   18.16400m    3.6644  
   18.16800m    3.6676  
   18.17200m    3.6708  
   18.17600m    3.6740  
   18.18000m    3.6772  
   18.18400m    3.6804  
   18.18800m    3.6836  
   18.19200m    3.6868  
   18.19600m    3.6900  
   18.20000m    3.6932  
   18.20400m    3.6964  
   18.20800m    3.6996  
   18.21200m    3.7013  
   18.21600m    3.7019  
   18.22000m    3.7025  
   18.22400m    3.7031  
   18.22800m    3.7036  
   18.23200m    3.7042  
   18.23600m    3.7048  
   18.24000m    3.7054  
   18.24400m    3.7059  
   18.24800m    3.7065  
   18.25200m    3.7071  
   18.25600m    3.7077  
   18.26000m    3.7083  
   18.26400m    3.7088  
   18.26800m    3.7094  
   18.27200m    3.7100  
   18.27600m    3.7106  
   18.28000m    3.7111  
   18.28400m    3.7117  
   18.28800m    3.7123  
   18.29200m    3.7129  
   18.29600m    3.7135  
   18.30000m    3.7140  
   18.30400m    3.7146  
   18.30800m    3.7152  
   18.31200m    3.7158  
   18.31600m    3.7133  
   18.32000m    3.7109  
   18.32400m    3.7085  
   18.32800m    3.7060  
   18.33200m    3.7036  
   18.33600m    3.7011  
   18.34000m    3.6987  
   18.34400m    3.6963  
   18.34800m    3.6938  
   18.35200m    3.6914  
   18.35600m    3.6890  
   18.36000m    3.6865  
   18.36400m    3.6841  
   18.36800m    3.6817  
   18.37200m    3.6792  
   18.37600m    3.6768  
   18.38000m    3.6743  
   18.38400m    3.6719  
   18.38800m    3.6695  
   18.39200m    3.6670  
   18.39600m    3.6646  
   18.40000m    3.6622  
   18.40400m    3.6597  
   18.40800m    3.6573  
   18.41200m    3.6548  
   18.41600m    3.6524  
   18.42000m    3.6500  
   18.42400m    3.6475  
   18.42800m    3.6451  
   18.43200m    3.6403  
   18.43600m    3.6348  
   18.44000m    3.6293  
   18.44400m    3.6238  
   18.44800m    3.6183  
   18.45200m    3.6128  
   18.45600m    3.6074  
   18.46000m    3.6019  
   18.46400m    3.5964  
   18.46800m    3.5909  
   18.47200m    3.5854  
   18.47600m    3.5799  
   18.48000m    3.5744  
   18.48400m    3.5689  
   18.48800m    3.5634  
   18.49200m    3.5579  
   18.49600m    3.5524  
   18.50000m    3.5469  
   18.50400m    3.5414  
   18.50800m    3.5359  
   18.51200m    3.5304  
   18.51600m    3.5249  
   18.52000m    3.5194  
   18.52400m    3.5139  
   18.52800m    3.5073  
   18.53200m    3.5003  
   18.53600m    3.4932  
   18.54000m    3.4861  
   18.54400m    3.4791  
   18.54800m    3.4720  
   18.55200m    3.4650  
   18.55600m    3.4579  
   18.56000m    3.4509  
   18.56400m    3.4438  
   18.56800m    3.4368  
   18.57200m    3.4297  
   18.57600m    3.4226  
   18.58000m    3.4156  
   18.58400m    3.4085  
   18.58800m    3.4015  
   18.59200m    3.3944  
   18.59600m    3.3874  
   18.60000m    3.3803  
   18.60400m    3.3733  
   18.60800m    3.3662  
   18.61200m    3.3591  
   18.61600m    3.3521  
   18.62000m    3.3450  
   18.62400m    3.3380  
   18.62800m    3.3310  
   18.63200m    3.3245  
   18.63600m    3.3181  
   18.64000m    3.3116  
   18.64400m    3.3051  
   18.64800m    3.2987  
   18.65200m    3.2922  
   18.65600m    3.2857  
   18.66000m    3.2793  
   18.66400m    3.2728  
   18.66800m    3.2663  
   18.67200m    3.2599  
   18.67600m    3.2534  
   18.68000m    3.2469  
   18.68400m    3.2405  
   18.68800m    3.2340  
   18.69200m    3.2275  
   18.69600m    3.2211  
   18.70000m    3.2146  
   18.70400m    3.2081  
   18.70800m    3.2017  
   18.71200m    3.1952  
   18.71600m    3.1888  
   18.72000m    3.1823  
   18.72400m    3.1758  
   18.72800m    3.1694  
   18.73200m    3.1629  
   18.73600m    3.1564  
   18.74000m    3.1500  
   18.74400m    3.1435  
   18.74800m    3.1370  
   18.75200m    3.1306  
   18.75600m    3.1241  
   18.76000m    3.1176  
   18.76400m    3.1125  
   18.76800m    3.1078  
   18.77200m    3.1031  
   18.77600m    3.0984  
   18.78000m    3.0937  
   18.78400m    3.0891  
   18.78800m    3.0844  
   18.79200m    3.0797  
   18.79600m    3.0750  
   18.80000m    3.0703  
   18.80400m    3.0656  
   18.80800m    3.0609  
   18.81200m    3.0562  
   18.81600m    3.0515  
   18.82000m    3.0469  
   18.82400m    3.0422  
   18.82800m    3.0375  
   18.83200m    3.0328  
   18.83600m    3.0281  
   18.84000m    3.0234  
   18.84400m    3.0187  
   18.84800m    3.0140  
   18.85200m    3.0093  
   18.85600m    3.0047  
   18.86000m    3.0000  
   18.86400m    2.9953  
   18.86800m    2.9906  
   18.87200m    2.9859  
   18.87600m    2.9827  
   18.88000m    2.9796  
   18.88400m    2.9766  
   18.88800m    2.9736  
   18.89200m    2.9705  
   18.89600m    2.9675  
   18.90000m    2.9644  
   18.90400m    2.9614  
   18.90800m    2.9584  
   18.91200m    2.9553  
   18.91600m    2.9523  
   18.92000m    2.9492  
   18.92400m    2.9462  
   18.92800m    2.9432  
   18.93200m    2.9401  
   18.93600m    2.9371  
   18.94000m    2.9340  
   18.94400m    2.9310  
   18.94800m    2.9279  
   18.95200m    2.9249  
   18.95600m    2.9219  
   18.96000m    2.9188  
   18.96400m    2.9158  
   18.96800m    2.9127  
   18.97200m    2.9097  
   18.97600m    2.9067  
   18.98000m    2.9036  
   18.98400m    2.9006  
   18.98800m    2.8975  
   18.99200m    2.8945  
   18.99600m    2.8915  
   19.00000m    2.8884  
   19.00400m    2.8854  
   19.00800m    2.8823  
   19.01200m    2.8804  
   19.01600m    2.8787  
   19.02000m    2.8770  
   19.02400m    2.8752  
   19.02800m    2.8735  
   19.03200m    2.8718  
   19.03600m    2.8701  
   19.04000m    2.8684  
   19.04400m    2.8666  
   19.04800m    2.8649  
   19.05200m    2.8632  
   19.05600m    2.8615  
   19.06000m    2.8597  
   19.06400m    2.8580  
   19.06800m    2.8563  
   19.07200m    2.8546  
   19.07600m    2.8529  
   19.08000m    2.8511  
   19.08400m    2.8494  
   19.08800m    2.8477  
   19.09200m    2.8460  
   19.09600m    2.8443  
   19.10000m    2.8425  
   19.10400m    2.8408  
   19.10800m    2.8391  
   19.11200m    2.8374  
   19.11600m    2.8357  
   19.12000m    2.8339  
   19.12400m    2.8322  
   19.12800m    2.8312  
   19.13200m    2.8306  
   19.13600m    2.8300  
   19.14000m    2.8294  
   19.14400m    2.8288  
   19.14800m    2.8282  
   19.15200m    2.8276  
   19.15600m    2.8270  
   19.16000m    2.8264  
   19.16400m    2.8258  
   19.16800m    2.8252  
   19.17200m    2.8246  
   19.17600m    2.8240  
   19.18000m    2.8234  
   19.18400m    2.8228  
   19.18800m    2.8222  
   19.19200m    2.8216  
   19.19600m    2.8210  
   19.20000m    2.8204  
   19.20400m    2.8198  
   19.20800m    2.8192  
   19.21200m    2.8186  
   19.21600m    2.8180  
   19.22000m    2.8174  
   19.22400m    2.8168  
   19.22800m    2.8162  
   19.23200m    2.8156  
   19.23600m    2.8150  
   19.24000m    2.8144  
   19.24400m    2.8138  
   19.24800m    2.8136  
   19.25200m    2.8142  
   19.25600m    2.8147  
   19.26000m    2.8153  
   19.26400m    2.8158  
   19.26800m    2.8164  
   19.27200m    2.8169  
   19.27600m    2.8174  
   19.28000m    2.8180  
   19.28400m    2.8185  
   19.28800m    2.8191  
   19.29200m    2.8196  
   19.29600m    2.8202  
   19.30000m    2.8207  
   19.30400m    2.8213  
   19.30800m    2.8218  
   19.31200m    2.8224  
   19.31600m    2.8229  
   19.32000m    2.8234  
   19.32400m    2.8240  
   19.32800m    2.8245  
   19.33200m    2.8251  
   19.33600m    2.8256  
   19.34000m    2.8262  
   19.34400m    2.8267  
   19.34800m    2.8273  
   19.35200m    2.8278  
   19.35600m    2.8283  
   19.36000m    2.8289  
   19.36400m    2.8294  
   19.36800m    2.8300  
   19.37200m    2.8305  
   19.37600m    2.8311  
   19.38000m    2.8316  
   19.38400m    2.8322  
   19.38800m    2.8327  
   19.39200m    2.8333  
   19.39600m    2.8338  
   19.40000m    2.8343  
   19.40400m    2.8350  
   19.40800m    2.8365  
   19.41200m    2.8380  
   19.41600m    2.8394  
   19.42000m    2.8409  
   19.42400m    2.8424  
   19.42800m    2.8439  
   19.43200m    2.8453  
   19.43600m    2.8468  
   19.44000m    2.8483  
   19.44400m    2.8497  
   19.44800m    2.8512  
   19.45200m    2.8527  
   19.45600m    2.8541  
   19.46000m    2.8556  
   19.46400m    2.8571  
   19.46800m    2.8586  
   19.47200m    2.8600  
   19.47600m    2.8615  
   19.48000m    2.8630  
   19.48400m    2.8644  
   19.48800m    2.8659  
   19.49200m    2.8674  
   19.49600m    2.8689  
   19.50000m    2.8703  
   19.50400m    2.8718  
   19.50800m    2.8733  
   19.51200m    2.8747  
   19.51600m    2.8762  
   19.52000m    2.8777  
   19.52400m    2.8794  
   19.52800m    2.8812  
   19.53200m    2.8830  
   19.53600m    2.8849  
   19.54000m    2.8867  
   19.54400m    2.8885  
   19.54800m    2.8903  
   19.55200m    2.8921  
   19.55600m    2.8939  
   19.56000m    2.8958  
   19.56400m    2.8976  
   19.56800m    2.8994  
   19.57200m    2.9012  
   19.57600m    2.9030  
   19.58000m    2.9049  
   19.58400m    2.9067  
   19.58800m    2.9085  
   19.59200m    2.9103  
   19.59600m    2.9121  
   19.60000m    2.9139  
   19.60400m    2.9158  
   19.60800m    2.9176  
   19.61200m    2.9194  
   19.61600m    2.9212  
   19.62000m    2.9230  
   19.62400m    2.9249  
   19.62800m    2.9267  
   19.63200m    2.9285  
   19.63600m    2.9303  
   19.64000m    2.9321  
   19.64400m    2.9339  
   19.64800m    2.9358  
   19.65200m    2.9376  
   19.65600m    2.9394  
   19.66000m    2.9412  
   19.66400m    2.9430  
   19.66800m    2.9449  
   19.67200m    2.9467  
   19.67600m    2.9485  
   19.68000m    2.9503  
   19.68400m    2.9521  
   19.68800m    2.9539  
   19.69200m    2.9556  
   19.69600m    2.9570  
   19.70000m    2.9584  
   19.70400m    2.9598  
   19.70800m    2.9612  
   19.71200m    2.9626  
   19.71600m    2.9640  
   19.72000m    2.9653  
   19.72400m    2.9667  
   19.72800m    2.9681  
   19.73200m    2.9695  
   19.73600m    2.9709  
   19.74000m    2.9723  
   19.74400m    2.9737  
   19.74800m    2.9751  
   19.75200m    2.9765  
   19.75600m    2.9779  
   19.76000m    2.9792  
   19.76400m    2.9806  
   19.76800m    2.9820  
   19.77200m    2.9834  
   19.77600m    2.9848  
   19.78000m    2.9862  
   19.78400m    2.9876  
   19.78800m    2.9890  
   19.79200m    2.9904  
   19.79600m    2.9918  
   19.80000m    2.9932  
   19.80400m    2.9945  
   19.80800m    2.9959  
   19.81200m    2.9973  
   19.81600m    2.9987  
   19.82000m    3.0001  
   19.82400m    3.0015  
   19.82800m    3.0029  
   19.83200m    3.0043  
   19.83600m    3.0050  
   19.84000m    3.0056  
   19.84400m    3.0063  
   19.84800m    3.0069  
   19.85200m    3.0075  
   19.85600m    3.0082  
   19.86000m    3.0088  
   19.86400m    3.0095  
   19.86800m    3.0101  
   19.87200m    3.0107  
   19.87600m    3.0114  
   19.88000m    3.0120  
   19.88400m    3.0126  
   19.88800m    3.0133  
   19.89200m    3.0139  
   19.89600m    3.0145  
   19.90000m    3.0152  
   19.90400m    3.0158  
   19.90800m    3.0165  
   19.91200m    3.0171  
   19.91600m    3.0177  
   19.92000m    3.0184  
   19.92400m    3.0190  
   19.92800m    3.0196  
   19.93200m    3.0203  
   19.93600m    3.0209  
   19.94000m    3.0215  
   19.94400m    3.0222  
   19.94800m    3.0228  
   19.95200m    3.0235  
   19.95600m    3.0241  
   19.96000m    3.0247  
   19.96400m    3.0254  
   19.96800m    3.0260  
   19.97200m    3.0266  
   19.97600m    3.0273  
   19.98000m    3.0279  
   19.98400m    3.0285  
   19.98800m    3.0292  
   19.99200m    3.0298  
   19.99600m    3.0304  
   20.00000m    3.0311  
y

          ***** job concluded
 ******  
 * example rlc-3

 ****** job statistics summary tnom=  25.000 temp=  25.000 ******

  ******  HSPICE Threads Information  ******

  Command Line Threads Count :     1
  Available CPU Count        :     8
  Actual Threads Count       :     1


  ******  Circuit Statistics  ******
  # nodes       =       8 # elements   =      11
  # resistors   =       3 # capacitors =       4 # inductors   =       3
  # mutual_inds =       0 # vccs       =       0 # vcvs        =       0
  # cccs        =       0 # ccvs       =       0 # volt_srcs   =       1
  # curr_srcs   =       0 # diodes     =       0 # bjts        =       0
  # jfets       =       0 # mosfets    =       0 # U elements  =       0
  # T elements  =       0 # W elements =       0 # B elements  =       0
  # S elements  =       0 # P elements =       0 # va device   =       0
  # vector_srcs =       0 # N elements =       0


  ******  Runtime Statistics (seconds)  ******

  analysis           time    # points   tot. iter  conv.iter
  op point           0.08           1           4
  transient          0.00        5001         394         197 rev=         9
  readin             0.22
  errchk             0.00
  setup              0.00
  output             0.00


           peak memory used         71.95 megabytes
           total cpu time            0.89 seconds
           total elapsed time        1.93 seconds
           job started at     17:50:50 12/06/2022
           job ended   at     17:50:52 12/06/2022
           job total runtime         1.93 seconds


  lic: Release hspice token(s) 
 lic: total license checkout elapse time:        1.03(s)
