 ****** HSPICE -- P-2019.06-SP1-1 win64 (Sep 27 2019) ******                    
  Copyright (c) 1986 - 2022 by Synopsys, Inc. All Rights Reserved.              
  This software and the associated documentation are proprietary
  to Synopsys, Inc. This software may only be used in accordance
  with the terms and conditions of a written license agreement with
  Synopsys, Inc. All other use, reproduction, or distribution of
  this software is strictly prohibited.
  Input File: RLC_s3.sp                                                         
  Command line options: C:\synopsys\Hspice_P-2019.06-SP1-1\WIN64\hspice.com -i RLC_s3.sp -o F:\Benchmark\RLC_s3.lis
  Start time: Tue Dec  6 17:48:11 2022
  lic:  
  lic: FLEXlm: SDK_12.3 
  lic: USER:   44919                HOSTNAME: CZJ 
  lic: HOSTID: "000000000000"       PID:      3444 
  lic: Using FLEXlm license file: 
  lic: 27000@CZJ 
  lic: Checkout 1 hspice 
  lic: License/Maintenance for hspice will expire on 30-dec-2030/2030.12 
  lic: 1(in_use)/99(total) FLOATING license(s) on SERVER 27000@CZJ 
  lic:   
1****** HSPICE -- P-2019.06-SP1-1 win64 (Sep 27 2019) ******                    
 ******  
 * example rlc-3

 ****** circuit name directory
 circuit number to circuit name directory
   number circuitname                     definition         multiplier
        0 main circuit
        1 x1.                             seg                1.00 
        2 x2.                             seg                1.00 
        3 x3.                             seg                1.00 
  **info** (RLC_s3.sp:4) DC voltage reset to initial transient source value in source 0:vin. new dc=0.0000D+00
  
      
 *****************************************************************
 ******  option summary
 ******
 runlvl  = 3         bypass  = 2.0000    

 **info** rebuilding matrix with pivot option

 **info** dc convergence successful at Newton-Raphson method 
 ******  
 * example rlc-3

 ****** operating point information tnom=  25.000 temp=  25.000 ******
 ****** operating point status is voltage   simulation time is     0.     
    node    =voltage      node    =voltage      node    =voltage

 +0:n_in1   =   0.      0:n_in2   =   0.      0:n_in3   =   0.     
 +0:n_out   =   0.      1:n_1     =   0.      2:n_1     =   0.     
 +3:n_1     =   0.     

 ******
 * example rlc-3

 ****** transient analysis tnom=  25.000 temp=  25.000 ******
x

 time         voltage   
             n_out      
    0.          0.      
    4.00000u   83.2278f 
    8.00000u   55.4030p 
   12.00000u  134.3627p 
   16.00000u    8.8258n 
   20.00000u   70.4227n 
   24.00000u  132.0195n 
   28.00000u  193.6164n 
   32.00000u  255.2132n 
   36.00000u  316.8100n 
   40.00000u  378.4069n 
   44.00000u  440.0037n 
   48.00000u  501.6006n 
   52.00000u   21.0019u 
   56.00000u   42.6232u 
   60.00000u   64.2446u 
   64.00000u   85.8660u 
   68.00000u  107.4874u 
   72.00000u  129.1087u 
   76.00000u  150.7301u 
   80.00000u  172.3515u 
   84.00000u  193.9728u 
   88.00000u  215.5942u 
   92.00000u  237.2156u 
   96.00000u  258.8370u 
  100.00000u  280.4583u 
  104.00000u  302.0797u 
  108.00000u  323.7011u 
  112.00000u  345.3224u 
  116.00000u  366.9438u 
  120.00000u  388.5652u 
  124.00000u  410.1866u 
  128.00000u  431.8079u 
  132.00000u  453.4293u 
  136.00000u  475.0507u 
  140.00000u  496.6720u 
  144.00000u  518.2934u 
  148.00000u  539.9148u 
  152.00000u  561.5362u 
  156.00000u  695.2526u 
  160.00000u  869.6754u 
  164.00000u    1.0441m 
  168.00000u    1.2185m 
  172.00000u    1.3929m 
  176.00000u    1.5674m 
  180.00000u    1.7418m 
  184.00000u    1.9162m 
  188.00000u    2.0906m 
  192.00000u    2.2651m 
  196.00000u    2.4395m 
  200.00000u    2.6139m 
  204.00000u    2.7883m 
  208.00000u    2.9627m 
  212.00000u    3.1372m 
  216.00000u    3.3116m 
  220.00000u    3.4860m 
  224.00000u    3.6604m 
  228.00000u    3.8349m 
  232.00000u    4.0093m 
  236.00000u    4.1837m 
  240.00000u    4.3581m 
  244.00000u    4.5326m 
  248.00000u    4.7070m 
  252.00000u    4.8814m 
  256.00000u    5.0558m 
  260.00000u    5.2302m 
  264.00000u    5.4133m 
  268.00000u    6.1976m 
  272.00000u    6.9818m 
  276.00000u    7.7661m 
  280.00000u    8.5503m 
  284.00000u    9.3346m 
  288.00000u   10.1189m 
  292.00000u   10.9031m 
  296.00000u   11.6874m 
  300.00000u   12.4716m 
  304.00000u   13.2559m 
  308.00000u   14.0401m 
  312.00000u   14.8244m 
  316.00000u   15.6086m 
  320.00000u   16.3929m 
  324.00000u   17.1771m 
  328.00000u   17.9614m 
  332.00000u   18.7456m 
  336.00000u   19.5299m 
  340.00000u   20.3141m 
  344.00000u   21.0984m 
  348.00000u   21.8826m 
  352.00000u   22.6669m 
  356.00000u   23.4511m 
  360.00000u   24.2354m 
  364.00000u   25.0196m 
  368.00000u   25.8039m 
  372.00000u   26.5881m 
  376.00000u   27.3724m 
  380.00000u   28.1566m 
  384.00000u   28.9409m 
  388.00000u   29.7251m 
  392.00000u   30.5094m 
  396.00000u   31.2936m 
  400.00000u   32.0779m 
  404.00000u   32.8621m 
  408.00000u   33.6464m 
  412.00000u   34.4306m 
  416.00000u   35.4616m 
  420.00000u   37.2009m 
  424.00000u   38.9402m 
  428.00000u   40.6794m 
  432.00000u   42.4187m 
  436.00000u   44.1580m 
  440.00000u   45.8972m 
  444.00000u   47.6365m 
  448.00000u   49.3758m 
  452.00000u   51.1150m 
  456.00000u   52.8543m 
  460.00000u   54.5936m 
  464.00000u   56.3328m 
  468.00000u   58.0721m 
  472.00000u   59.8114m 
  476.00000u   61.5506m 
  480.00000u   63.2899m 
  484.00000u   65.0292m 
  488.00000u   66.7685m 
  492.00000u   68.5077m 
  496.00000u   70.2470m 
  500.00000u   71.9863m 
  504.00000u   73.7255m 
  508.00000u   75.4648m 
  512.00000u   77.2041m 
  516.00000u   78.9433m 
  520.00000u   80.6826m 
  524.00000u   82.4219m 
  528.00000u   84.1611m 
  532.00000u   86.6696m 
  536.00000u   89.2538m 
  540.00000u   91.8380m 
  544.00000u   94.4222m 
  548.00000u   97.0064m 
  552.00000u   99.5906m 
  556.00000u  102.1749m 
  560.00000u  104.7591m 
  564.00000u  107.3433m 
  568.00000u  109.9275m 
  572.00000u  112.5117m 
  576.00000u  115.0959m 
  580.00000u  117.6801m 
  584.00000u  120.2643m 
  588.00000u  122.8485m 
  592.00000u  125.4327m 
  596.00000u  128.0170m 
  600.00000u  130.6012m 
  604.00000u  133.1854m 
  608.00000u  135.7696m 
  612.00000u  138.3538m 
  616.00000u  140.9380m 
  620.00000u  143.5222m 
  624.00000u  146.1064m 
  628.00000u  148.6906m 
  632.00000u  151.2748m 
  636.00000u  153.8591m 
  640.00000u  156.4433m 
  644.00000u  159.0275m 
  648.00000u  161.6117m 
  652.00000u  164.1959m 
  656.00000u  166.7801m 
  660.00000u  169.3643m 
  664.00000u  171.9485m 
  668.00000u  174.5327m 
  672.00000u  177.1169m 
  676.00000u  179.7012m 
  680.00000u  182.2854m 
  684.00000u  185.0211m 
  688.00000u  187.9718m 
  692.00000u  190.9225m 
  696.00000u  193.8732m 
  700.00000u  196.8240m 
  704.00000u  199.7747m 
  708.00000u  202.7254m 
  712.00000u  205.6762m 
  716.00000u  208.6269m 
  720.00000u  211.5776m 
  724.00000u  214.5284m 
  728.00000u  217.4791m 
  732.00000u  220.4298m 
  736.00000u  223.3805m 
  740.00000u  226.3313m 
  744.00000u  229.2820m 
  748.00000u  232.2327m 
  752.00000u  235.1835m 
  756.00000u  238.1342m 
  760.00000u  241.0849m 
  764.00000u  244.0357m 
  768.00000u  246.9864m 
  772.00000u  249.9371m 
  776.00000u  252.8878m 
  780.00000u  255.8386m 
  784.00000u  258.7893m 
  788.00000u  261.7400m 
  792.00000u  264.6908m 
  796.00000u  267.6415m 
  800.00000u  270.5922m 
  804.00000u  273.5430m 
  808.00000u  276.4937m 
  812.00000u  279.4444m 
  816.00000u  282.3951m 
  820.00000u  285.3459m 
  824.00000u  288.2966m 
  828.00000u  291.2473m 
  832.00000u  294.1981m 
  836.00000u  297.1488m 
  840.00000u  300.0995m 
  844.00000u  303.0144m 
  848.00000u  305.9267m 
  852.00000u  308.8390m 
  856.00000u  311.7513m 
  860.00000u  314.6637m 
  864.00000u  317.5760m 
  868.00000u  320.4883m 
  872.00000u  323.4007m 
  876.00000u  326.3130m 
  880.00000u  329.2253m 
  884.00000u  332.1376m 
  888.00000u  335.0500m 
  892.00000u  337.9623m 
  896.00000u  340.8746m 
  900.00000u  343.7870m 
  904.00000u  346.6993m 
  908.00000u  349.6116m 
  912.00000u  352.5239m 
  916.00000u  355.4363m 
  920.00000u  358.3486m 
  924.00000u  361.2609m 
  928.00000u  364.1733m 
  932.00000u  367.0856m 
  936.00000u  369.9979m 
  940.00000u  372.9103m 
  944.00000u  375.8226m 
  948.00000u  378.7349m 
  952.00000u  381.6472m 
  956.00000u  384.5596m 
  960.00000u  387.4719m 
  964.00000u  390.3842m 
  968.00000u  393.2966m 
  972.00000u  396.2089m 
  976.00000u  399.1212m 
  980.00000u  402.0335m 
  984.00000u  404.9459m 
  988.00000u  407.8471m 
  992.00000u  410.7245m 
  996.00000u  413.6018m 
    1.00000m  416.4792m 
    1.00400m  419.3566m 
    1.00800m  422.2339m 
    1.01200m  425.1113m 
    1.01600m  427.9886m 
    1.02000m  430.8660m 
    1.02400m  433.7434m 
    1.02800m  436.6207m 
    1.03200m  439.4981m 
    1.03600m  442.3755m 
    1.04000m  445.2528m 
    1.04400m  448.1302m 
    1.04800m  451.0075m 
    1.05200m  453.8849m 
    1.05600m  456.7623m 
    1.06000m  459.6396m 
    1.06400m  462.5170m 
    1.06800m  465.3943m 
    1.07200m  468.2717m 
    1.07600m  471.1491m 
    1.08000m  474.0264m 
    1.08400m  476.9038m 
    1.08800m  479.7812m 
    1.09200m  482.6585m 
    1.09600m  485.5359m 
    1.10000m  488.4132m 
    1.10400m  491.2906m 
    1.10800m  494.1680m 
    1.11200m  497.0453m 
    1.11600m  499.9227m 
    1.12000m  502.8000m 
    1.12400m  505.6774m 
    1.12800m  508.5548m 
    1.13200m  511.4321m 
    1.13600m  514.3095m 
    1.14000m  517.1869m 
    1.14400m  520.0642m 
    1.14800m  522.9416m 
    1.15200m  525.8189m 
    1.15600m  528.6963m 
    1.16000m  531.5737m 
    1.16400m  534.4510m 
    1.16800m  537.3284m 
    1.17200m  540.2057m 
    1.17600m  543.0552m 
    1.18000m  545.8480m 
    1.18400m  548.6408m 
    1.18800m  551.4336m 
    1.19200m  554.2264m 
    1.19600m  557.0192m 
    1.20000m  559.8120m 
    1.20400m  562.6049m 
    1.20800m  565.3977m 
    1.21200m  568.1905m 
    1.21600m  570.9833m 
    1.22000m  573.7761m 
    1.22400m  576.5355m 
    1.22800m  579.2493m 
    1.23200m  581.9631m 
    1.23600m  584.6770m 
    1.24000m  587.3908m 
    1.24400m  590.1046m 
    1.24800m  592.8184m 
    1.25200m  595.5323m 
    1.25600m  598.2461m 
    1.26000m  600.9599m 
    1.26400m  603.6737m 
    1.26800m  606.3875m 
    1.27200m  609.1014m 
    1.27600m  611.8152m 
    1.28000m  614.5290m 
    1.28400m  617.2428m 
    1.28800m  619.7270m 
    1.29200m  622.0729m 
    1.29600m  624.4188m 
    1.30000m  626.7648m 
    1.30400m  629.1107m 
    1.30800m  631.4566m 
    1.31200m  633.8025m 
    1.31600m  636.1484m 
    1.32000m  638.4943m 
    1.32400m  640.8403m 
    1.32800m  643.1862m 
    1.33200m  645.5321m 
    1.33600m  647.8780m 
    1.34000m  650.2239m 
    1.34400m  652.5698m 
    1.34800m  654.9158m 
    1.35200m  657.2617m 
    1.35600m  659.6076m 
    1.36000m  661.9535m 
    1.36400m  664.2994m 
    1.36800m  666.6453m 
    1.37200m  668.9913m 
    1.37600m  671.3372m 
    1.38000m  673.6831m 
    1.38400m  676.0290m 
    1.38800m  678.3749m 
    1.39200m  680.7208m 
    1.39600m  683.0668m 
    1.40000m  685.4127m 
    1.40400m  687.7586m 
    1.40800m  690.1045m 
    1.41200m  692.4504m 
    1.41600m  694.7963m 
    1.42000m  697.1423m 
    1.42400m  699.4882m 
    1.42800m  701.8341m 
    1.43200m  704.1800m 
    1.43600m  706.5259m 
    1.44000m  708.8718m 
    1.44400m  711.2178m 
    1.44800m  713.5637m 
    1.45200m  715.9096m 
    1.45600m  718.1481m 
    1.46000m  720.1296m 
    1.46400m  722.1110m 
    1.46800m  724.0925m 
    1.47200m  726.0739m 
    1.47600m  728.0554m 
    1.48000m  730.0368m 
    1.48400m  732.0183m 
    1.48800m  733.9997m 
    1.49200m  735.9812m 
    1.49600m  737.9626m 
    1.50000m  739.9441m 
    1.50400m  741.6798m 
    1.50800m  743.4156m 
    1.51200m  745.1514m 
    1.51600m  746.8872m 
    1.52000m  748.6229m 
    1.52400m  750.3587m 
    1.52800m  752.0945m 
    1.53200m  753.8302m 
    1.53600m  755.5660m 
    1.54000m  757.3018m 
    1.54400m  759.0376m 
    1.54800m  760.7733m 
    1.55200m  762.5091m 
    1.55600m  764.2449m 
    1.56000m  765.9806m 
    1.56400m  767.7164m 
    1.56800m  769.4522m 
    1.57200m  771.1879m 
    1.57600m  772.8709m 
    1.58000m  774.5498m 
    1.58400m  776.2287m 
    1.58800m  777.9077m 
    1.59200m  779.5866m 
    1.59600m  781.2655m 
    1.60000m  782.9444m 
    1.60400m  784.6233m 
    1.60800m  786.3022m 
    1.61200m  787.9811m 
    1.61600m  789.6600m 
    1.62000m  791.3389m 
    1.62400m  793.0179m 
    1.62800m  794.5839m 
    1.63200m  796.0758m 
    1.63600m  797.5676m 
    1.64000m  799.0594m 
    1.64400m  800.5512m 
    1.64800m  802.0431m 
    1.65200m  803.5349m 
    1.65600m  805.0267m 
    1.66000m  806.5185m 
    1.66400m  808.0103m 
    1.66800m  809.5022m 
    1.67200m  810.9940m 
    1.67600m  812.4858m 
    1.68000m  813.9776m 
    1.68400m  815.4695m 
    1.68800m  816.9613m 
    1.69200m  818.4531m 
    1.69600m  819.9449m 
    1.70000m  821.4367m 
    1.70400m  822.9286m 
    1.70800m  824.4204m 
    1.71200m  825.9122m 
    1.71600m  827.4040m 
    1.72000m  828.8959m 
    1.72400m  830.3877m 
    1.72800m  831.8795m 
    1.73200m  833.3713m 
    1.73600m  834.8631m 
    1.74000m  836.3550m 
    1.74400m  837.8468m 
    1.74800m  839.3386m 
    1.75200m  840.8304m 
    1.75600m  842.3223m 
    1.76000m  843.8141m 
    1.76400m  845.3059m 
    1.76800m  846.7977m 
    1.77200m  848.2895m 
    1.77600m  849.7814m 
    1.78000m  851.2732m 
    1.78400m  852.7650m 
    1.78800m  854.1238m 
    1.79200m  855.3717m 
    1.79600m  856.6196m 
    1.80000m  857.8675m 
    1.80400m  859.1155m 
    1.80800m  860.3634m 
    1.81200m  861.6113m 
    1.81600m  862.8592m 
    1.82000m  864.1071m 
    1.82400m  865.3551m 
    1.82800m  866.6030m 
    1.83200m  867.8509m 
    1.83600m  869.0988m 
    1.84000m  870.3468m 
    1.84400m  871.5947m 
    1.84800m  872.8426m 
    1.85200m  874.0905m 
    1.85600m  875.3384m 
    1.86000m  876.5864m 
    1.86400m  877.8343m 
    1.86800m  879.0822m 
    1.87200m  880.3301m 
    1.87600m  881.5780m 
    1.88000m  882.8260m 
    1.88400m  884.0739m 
    1.88800m  885.3218m 
    1.89200m  886.5697m 
    1.89600m  887.8177m 
    1.90000m  889.0656m 
    1.90400m  890.3135m 
    1.90800m  891.5614m 
    1.91200m  892.8093m 
    1.91600m  894.0573m 
    1.92000m  895.3052m 
    1.92400m  896.5531m 
    1.92800m  897.8010m 
    1.93200m  899.0489m 
    1.93600m  900.2969m 
    1.94000m  901.5448m 
    1.94400m  902.7927m 
    1.94800m  903.8585m 
    1.95200m  904.7722m 
    1.95600m  905.6859m 
    1.96000m  906.5996m 
    1.96400m  907.5134m 
    1.96800m  908.4271m 
    1.97200m  909.3408m 
    1.97600m  910.2545m 
    1.98000m  911.1682m 
    1.98400m  912.0819m 
    1.98800m  912.9956m 
    1.99200m  913.9093m 
    1.99600m  914.8230m 
    2.00000m  915.7367m 
    2.00400m  916.6505m 
    2.00800m  917.5642m 
    2.01200m  918.4779m 
    2.01600m  919.3916m 
    2.02000m  920.3053m 
    2.02400m  921.2190m 
    2.02800m  922.1327m 
    2.03200m  923.0464m 
    2.03600m  923.9601m 
    2.04000m  924.8739m 
    2.04400m  925.7876m 
    2.04800m  926.7013m 
    2.05200m  927.6150m 
    2.05600m  928.5287m 
    2.06000m  929.4424m 
    2.06400m  930.3561m 
    2.06800m  931.2698m 
    2.07200m  932.1835m 
    2.07600m  933.0972m 
    2.08000m  934.0110m 
    2.08400m  934.9247m 
    2.08800m  935.8384m 
    2.09200m  936.7521m 
    2.09600m  937.6658m 
    2.10000m  938.5795m 
    2.10400m  939.4932m 
    2.10800m  940.4069m 
    2.11200m  941.3206m 
    2.11600m  942.2344m 
    2.12000m  943.1481m 
    2.12400m  944.0618m 
    2.12800m  944.9755m 
    2.13200m  945.8892m 
    2.13600m  946.8029m 
    2.14000m  947.7166m 
    2.14400m  948.6303m 
    2.14800m  949.5440m 
    2.15200m  950.4578m 
    2.15600m  951.3715m 
    2.16000m  952.2852m 
    2.16400m  953.1989m 
    2.16800m  954.1126m 
    2.17200m  955.0263m 
    2.17600m  955.9400m 
    2.18000m  956.8537m 
    2.18400m  957.7674m 
    2.18800m  958.6811m 
    2.19200m  959.5949m 
    2.19600m  960.5086m 
    2.20000m  961.4223m 
    2.20400m  962.3360m 
    2.20800m  963.2497m 
    2.21200m  964.1634m 
    2.21600m  965.0771m 
    2.22000m  965.9908m 
    2.22400m  966.9045m 
    2.22800m  967.8183m 
    2.23200m  968.7320m 
    2.23600m  969.5473m 
    2.24000m  970.1230m 
    2.24400m  970.6988m 
    2.24800m  971.2746m 
    2.25200m  971.8503m 
    2.25600m  972.4261m 
    2.26000m  973.0019m 
    2.26400m  973.5777m 
    2.26800m  974.1534m 
    2.27200m  974.7292m 
    2.27600m  975.3050m 
    2.28000m  975.8807m 
    2.28400m  976.4565m 
    2.28800m  977.0323m 
    2.29200m  977.6080m 
    2.29600m  978.1838m 
    2.30000m  978.7596m 
    2.30400m  979.3354m 
    2.30800m  979.9111m 
    2.31200m  980.4869m 
    2.31600m  981.0627m 
    2.32000m  981.6384m 
    2.32400m  982.2142m 
    2.32800m  982.7900m 
    2.33200m  983.3657m 
    2.33600m  983.9415m 
    2.34000m  984.5173m 
    2.34400m  985.0931m 
    2.34800m  985.6688m 
    2.35200m  986.2446m 
    2.35600m  986.8204m 
    2.36000m  987.3961m 
    2.36400m  987.9719m 
    2.36800m  988.5477m 
    2.37200m  989.1234m 
    2.37600m  989.6992m 
    2.38000m  990.2750m 
    2.38400m  990.8508m 
    2.38800m  991.4265m 
    2.39200m  992.0023m 
    2.39600m  992.5781m 
    2.40000m  993.1538m 
    2.40400m  993.7296m 
    2.40800m  994.3054m 
    2.41200m  994.8811m 
    2.41600m  995.4569m 
    2.42000m  996.0327m 
    2.42400m  996.5587m 
    2.42800m  996.9837m 
    2.43200m  997.4087m 
    2.43600m  997.8337m 
    2.44000m  998.2587m 
    2.44400m  998.6837m 
    2.44800m  999.1087m 
    2.45200m  999.5337m 
    2.45600m  999.9587m 
    2.46000m    1.0004  
    2.46400m    1.0008  
    2.46800m    1.0012  
    2.47200m    1.0017  
    2.47600m    1.0021  
    2.48000m    1.0025  
    2.48400m    1.0029  
    2.48800m    1.0034  
    2.49200m    1.0038  
    2.49600m    1.0042  
    2.50000m    1.0046  
    2.50400m    1.0049  
    2.50800m    1.0051  
    2.51200m    1.0054  
    2.51600m    1.0056  
    2.52000m    1.0059  
    2.52400m    1.0061  
    2.52800m    1.0064  
    2.53200m    1.0066  
    2.53600m    1.0069  
    2.54000m    1.0071  
    2.54400m    1.0074  
    2.54800m    1.0076  
    2.55200m    1.0079  
    2.55600m    1.0082  
    2.56000m    1.0084  
    2.56400m    1.0087  
    2.56800m    1.0089  
    2.57200m    1.0092  
    2.57600m    1.0094  
    2.58000m    1.0097  
    2.58400m    1.0099  
    2.58800m    1.0102  
    2.59200m    1.0104  
    2.59600m    1.0107  
    2.60000m    1.0109  
    2.60400m    1.0112  
    2.60800m    1.0114  
    2.61200m    1.0117  
    2.61600m    1.0119  
    2.62000m    1.0122  
    2.62400m    1.0124  
    2.62800m    1.0126  
    2.63200m    1.0129  
    2.63600m    1.0131  
    2.64000m    1.0133  
    2.64400m    1.0135  
    2.64800m    1.0137  
    2.65200m    1.0139  
    2.65600m    1.0142  
    2.66000m    1.0144  
    2.66400m    1.0146  
    2.66800m    1.0148  
    2.67200m    1.0150  
    2.67600m    1.0152  
    2.68000m    1.0154  
    2.68400m    1.0155  
    2.68800m    1.0155  
    2.69200m    1.0156  
    2.69600m    1.0156  
    2.70000m    1.0157  
    2.70400m    1.0157  
    2.70800m    1.0158  
    2.71200m    1.0158  
    2.71600m    1.0159  
    2.72000m    1.0159  
    2.72400m    1.0160  
    2.72800m    1.0160  
    2.73200m    1.0161  
    2.73600m    1.0161  
    2.74000m    1.0162  
    2.74400m    1.0162  
    2.74800m    1.0163  
    2.75200m    1.0163  
    2.75600m    1.0164  
    2.76000m    1.0164  
    2.76400m    1.0165  
    2.76800m    1.0165  
    2.77200m    1.0166  
    2.77600m    1.0166  
    2.78000m    1.0167  
    2.78400m    1.0167  
    2.78800m    1.0168  
    2.79200m    1.0168  
    2.79600m    1.0169  
    2.80000m    1.0169  
    2.80400m    1.0170  
    2.80800m    1.0170  
    2.81200m    1.0171  
    2.81600m    1.0171  
    2.82000m    1.0172  
    2.82400m    1.0172  
    2.82800m    1.0173  
    2.83200m    1.0173  
    2.83600m    1.0174  
    2.84000m    1.0174  
    2.84400m    1.0175  
    2.84800m    1.0175  
    2.85200m    1.0176  
    2.85600m    1.0176  
    2.86000m    1.0175  
    2.86400m    1.0172  
    2.86800m    1.0170  
    2.87200m    1.0167  
    2.87600m    1.0164  
    2.88000m    1.0162  
    2.88400m    1.0159  
    2.88800m    1.0157  
    2.89200m    1.0154  
    2.89600m    1.0151  
    2.90000m    1.0149  
    2.90400m    1.0146  
    2.90800m    1.0143  
    2.91200m    1.0141  
    2.91600m    1.0138  
    2.92000m    1.0136  
    2.92400m    1.0133  
    2.92800m    1.0130  
    2.93200m    1.0128  
    2.93600m    1.0125  
    2.94000m    1.0122  
    2.94400m    1.0120  
    2.94800m    1.0117  
    2.95200m    1.0114  
    2.95600m    1.0112  
    2.96000m    1.0109  
    2.96400m    1.0107  
    2.96800m    1.0104  
    2.97200m    1.0101  
    2.97600m    1.0099  
    2.98000m    1.0096  
    2.98400m    1.0093  
    2.98800m    1.0091  
    2.99200m    1.0088  
    2.99600m    1.0086  
    3.00000m    1.0083  
    3.00400m    1.0080  
    3.00800m    1.0078  
    3.01200m    1.0075  
    3.01600m    1.0072  
    3.02000m    1.0070  
    3.02400m    1.0067  
    3.02800m    1.0065  
    3.03200m    1.0062  
    3.03600m    1.0059  
    3.04000m    1.0057  
    3.04400m    1.0054  
    3.04800m    1.0051  
    3.05200m    1.0049  
    3.05600m    1.0046  
    3.06000m    1.0044  
    3.06400m    1.0041  
    3.06800m    1.0038  
    3.07200m    1.0036  
    3.07600m    1.0033  
    3.08000m    1.0028  
    3.08400m    1.0022  
    3.08800m    1.0017  
    3.09200m    1.0012  
    3.09600m    1.0007  
    3.10000m    1.0001  
    3.10400m  999.6065m 
    3.10800m  999.0788m 
    3.11200m  998.5511m 
    3.11600m  998.0234m 
    3.12000m  997.4958m 
    3.12400m  996.9681m 
    3.12800m  996.4404m 
    3.13200m  995.9127m 
    3.13600m  995.3850m 
    3.14000m  994.8574m 
    3.14400m  994.3297m 
    3.14800m  993.8020m 
    3.15200m  993.2743m 
    3.15600m  992.7467m 
    3.16000m  992.2190m 
    3.16400m  991.6913m 
    3.16800m  991.1636m 
    3.17200m  990.6359m 
    3.17600m  990.1083m 
    3.18000m  989.5806m 
    3.18400m  988.9744m 
    3.18800m  988.2952m 
    3.19200m  987.6161m 
    3.19600m  986.9370m 
    3.20000m  986.2578m 
    3.20400m  985.5787m 
    3.20800m  984.8995m 
    3.21200m  984.2204m 
    3.21600m  983.5412m 
    3.22000m  982.8621m 
    3.22400m  982.1829m 
    3.22800m  981.5038m 
    3.23200m  980.8246m 
    3.23600m  980.1455m 
    3.24000m  979.4663m 
    3.24400m  978.7872m 
    3.24800m  978.1081m 
    3.25200m  977.4289m 
    3.25600m  976.7498m 
    3.26000m  976.0706m 
    3.26400m  975.2222m 
    3.26800m  974.2780m 
    3.27200m  973.3339m 
    3.27600m  972.3897m 
    3.28000m  971.4455m 
    3.28400m  970.5014m 
    3.28800m  969.5572m 
    3.29200m  968.6130m 
    3.29600m  967.6689m 
    3.30000m  966.7247m 
    3.30400m  965.7805m 
    3.30800m  964.8364m 
    3.31200m  963.8922m 
    3.31600m  962.9480m 
    3.32000m  962.0039m 
    3.32400m  961.0597m 
    3.32800m  960.1155m 
    3.33200m  959.1714m 
    3.33600m  958.2272m 
    3.34000m  957.2830m 
    3.34400m  956.3389m 
    3.34800m  955.3947m 
    3.35200m  954.4506m 
    3.35600m  953.5064m 
    3.36000m  952.5622m 
    3.36400m  951.6181m 
    3.36800m  950.6739m 
    3.37200m  949.7297m 
    3.37600m  948.7856m 
    3.38000m  947.8414m 
    3.38400m  946.8972m 
    3.38800m  945.9531m 
    3.39200m  945.0089m 
    3.39600m  944.0647m 
    3.40000m  943.1206m 
    3.40400m  942.1764m 
    3.40800m  941.2322m 
    3.41200m  940.2881m 
    3.41600m  939.3439m 
    3.42000m  938.3997m 
    3.42400m  937.4556m 
    3.42800m  936.5114m 
    3.43200m  935.5672m 
    3.43600m  934.6231m 
    3.44000m  933.6789m 
    3.44400m  932.7347m 
    3.44800m  931.7906m 
    3.45200m  930.8464m 
    3.45600m  929.9023m 
    3.46000m  928.9581m 
    3.46400m  928.0139m 
    3.46800m  927.0698m 
    3.47200m  926.1256m 
    3.47600m  925.1814m 
    3.48000m  924.2373m 
    3.48400m  923.2931m 
    3.48800m  922.3489m 
    3.49200m  921.4048m 
    3.49600m  920.4606m 
    3.50000m  919.5164m 
    3.50400m  918.1641m 
    3.50800m  916.8117m 
    3.51200m  915.4593m 
    3.51600m  914.1069m 
    3.52000m  912.7545m 
    3.52400m  911.4021m 
    3.52800m  910.0497m 
    3.53200m  908.6974m 
    3.53600m  907.3450m 
    3.54000m  905.9926m 
    3.54400m  904.6402m 
    3.54800m  903.2878m 
    3.55200m  901.9354m 
    3.55600m  900.5830m 
    3.56000m  899.2307m 
    3.56400m  897.8783m 
    3.56800m  896.5259m 
    3.57200m  895.1735m 
    3.57600m  893.8211m 
    3.58000m  892.4687m 
    3.58400m  891.1163m 
    3.58800m  889.7640m 
    3.59200m  888.4116m 
    3.59600m  887.0592m 
    3.60000m  885.7068m 
    3.60400m  884.3544m 
    3.60800m  883.0020m 
    3.61200m  881.6497m 
    3.61600m  880.2973m 
    3.62000m  878.9449m 
    3.62400m  877.5925m 
    3.62800m  876.2401m 
    3.63200m  874.8877m 
    3.63600m  873.5353m 
    3.64000m  872.1830m 
    3.64400m  870.8306m 
    3.64800m  869.4782m 
    3.65200m  868.0888m 
    3.65600m  866.6951m 
    3.66000m  865.3014m 
    3.66400m  863.9077m 
    3.66800m  862.5140m 
    3.67200m  861.1203m 
    3.67600m  859.7266m 
    3.68000m  858.3329m 
    3.68400m  856.9393m 
    3.68800m  855.5456m 
    3.69200m  854.1519m 
    3.69600m  852.7582m 
    3.70000m  851.3645m 
    3.70400m  849.9708m 
    3.70800m  848.5771m 
    3.71200m  847.0650m 
    3.71600m  845.5108m 
    3.72000m  843.9566m 
    3.72400m  842.4024m 
    3.72800m  840.8482m 
    3.73200m  839.2940m 
    3.73600m  837.7398m 
    3.74000m  836.1856m 
    3.74400m  834.6314m 
    3.74800m  833.0772m 
    3.75200m  831.5230m 
    3.75600m  829.9688m 
    3.76000m  828.4146m 
    3.76400m  826.8604m 
    3.76800m  825.3062m 
    3.77200m  823.7521m 
    3.77600m  822.1979m 
    3.78000m  820.6437m 
    3.78400m  819.0895m 
    3.78800m  817.5353m 
    3.79200m  815.9811m 
    3.79600m  814.4269m 
    3.80000m  812.8727m 
    3.80400m  811.3185m 
    3.80800m  809.7643m 
    3.81200m  808.2101m 
    3.81600m  806.6559m 
    3.82000m  805.1017m 
    3.82400m  803.5475m 
    3.82800m  801.9933m 
    3.83200m  800.4391m 
    3.83600m  798.8849m 
    3.84000m  797.3307m 
    3.84400m  795.7766m 
    3.84800m  794.2224m 
    3.85200m  792.6682m 
    3.85600m  791.1140m 
    3.86000m  789.5598m 
    3.86400m  788.0056m 
    3.86800m  786.4514m 
    3.87200m  784.8972m 
    3.87600m  783.3430m 
    3.88000m  781.7888m 
    3.88400m  780.2346m 
    3.88800m  778.6804m 
    3.89200m  777.1262m 
    3.89600m  775.5720m 
    3.90000m  774.0178m 
    3.90400m  772.4071m 
    3.90800m  770.6076m 
    3.91200m  768.8080m 
    3.91600m  767.0085m 
    3.92000m  765.2089m 
    3.92400m  763.4093m 
    3.92800m  761.6098m 
    3.93200m  759.8102m 
    3.93600m  758.0107m 
    3.94000m  756.2111m 
    3.94400m  754.4116m 
    3.94800m  752.6120m 
    3.95200m  750.8125m 
    3.95600m  749.0129m 
    3.96000m  747.2134m 
    3.96400m  745.4138m 
    3.96800m  743.6143m 
    3.97200m  741.8147m 
    3.97600m  740.0152m 
    3.98000m  738.2156m 
    3.98400m  736.4160m 
    3.98800m  734.6165m 
    3.99200m  732.8169m 
    3.99600m  731.0174m 
    4.00000m  729.2178m 
    4.00400m  727.4183m 
    4.00800m  725.6187m 
    4.01200m  723.8192m 
    4.01600m  722.0196m 
    4.02000m  720.2201m 
    4.02400m  718.4205m 
    4.02800m  716.6210m 
    4.03200m  714.8214m 
    4.03600m  713.0219m 
    4.04000m  711.2223m 
    4.04400m  709.4228m 
    4.04800m  707.6232m 
    4.05200m  705.8236m 
    4.05600m  704.0241m 
    4.06000m  702.2245m 
    4.06400m  700.4250m 
    4.06800m  698.6254m 
    4.07200m  696.8259m 
    4.07600m  695.0263m 
    4.08000m  693.2268m 
    4.08400m  691.4272m 
    4.08800m  689.6277m 
    4.09200m  687.8281m 
    4.09600m  686.0286m 
    4.10000m  684.2290m 
    4.10400m  682.4295m 
    4.10800m  680.6299m 
    4.11200m  678.8303m 
    4.11600m  677.0308m 
    4.12000m  675.2312m 
    4.12400m  673.4157m 
    4.12800m  671.4278m 
    4.13200m  669.4399m 
    4.13600m  667.4520m 
    4.14000m  665.4641m 
    4.14400m  663.4762m 
    4.14800m  661.4883m 
    4.15200m  659.5004m 
    4.15600m  657.5125m 
    4.16000m  655.5246m 
    4.16400m  653.5367m 
    4.16800m  651.5488m 
    4.17200m  649.5609m 
    4.17600m  647.5730m 
    4.18000m  645.5851m 
    4.18400m  643.5971m 
    4.18800m  641.6092m 
    4.19200m  639.6213m 
    4.19600m  637.6334m 
    4.20000m  635.6455m 
    4.20400m  633.6576m 
    4.20800m  631.6697m 
    4.21200m  629.6818m 
    4.21600m  627.6939m 
    4.22000m  625.7060m 
    4.22400m  623.7181m 
    4.22800m  621.7302m 
    4.23200m  619.7423m 
    4.23600m  617.6729m 
    4.24000m  615.5760m 
    4.24400m  613.4791m 
    4.24800m  611.3821m 
    4.25200m  609.2852m 
    4.25600m  607.1883m 
    4.26000m  605.0914m 
    4.26400m  602.9945m 
    4.26800m  600.8976m 
    4.27200m  598.8006m 
    4.27600m  596.7037m 
    4.28000m  594.6068m 
    4.28400m  592.5099m 
    4.28800m  590.4130m 
    4.29200m  588.3161m 
    4.29600m  586.2191m 
    4.30000m  584.1222m 
    4.30400m  582.0253m 
    4.30800m  579.9284m 
    4.31200m  577.8315m 
    4.31600m  575.7346m 
    4.32000m  573.6376m 
    4.32400m  571.4029m 
    4.32800m  569.1490m 
    4.33200m  566.8950m 
    4.33600m  564.6411m 
    4.34000m  562.3872m 
    4.34400m  560.1332m 
    4.34800m  557.8793m 
    4.35200m  555.6254m 
    4.35600m  553.3714m 
    4.36000m  551.1175m 
    4.36400m  548.8636m 
    4.36800m  546.6096m 
    4.37200m  544.3557m 
    4.37600m  542.1018m 
    4.38000m  539.8478m 
    4.38400m  537.5939m 
    4.38800m  535.3399m 
    4.39200m  533.0860m 
    4.39600m  530.8321m 
    4.40000m  528.5781m 
    4.40400m  526.3242m 
    4.40800m  524.0703m 
    4.41200m  521.8163m 
    4.41600m  519.5624m 
    4.42000m  517.3085m 
    4.42400m  515.0545m 
    4.42800m  512.8006m 
    4.43200m  510.5466m 
    4.43600m  508.2927m 
    4.44000m  506.0388m 
    4.44400m  503.7848m 
    4.44800m  501.5309m 
    4.45200m  499.2770m 
    4.45600m  497.0230m 
    4.46000m  494.7691m 
    4.46400m  492.5152m 
    4.46800m  490.2612m 
    4.47200m  488.0073m 
    4.47600m  485.7534m 
    4.48000m  483.4994m 
    4.48400m  481.2455m 
    4.48800m  478.9915m 
    4.49200m  476.7376m 
    4.49600m  474.4837m 
    4.50000m  472.2297m 
    4.50400m  469.9758m 
    4.50800m  467.7219m 
    4.51200m  465.4679m 
    4.51600m  463.2140m 
    4.52000m  460.9601m 
    4.52400m  458.7061m 
    4.52800m  456.4522m 
    4.53200m  454.1982m 
    4.53600m  451.9443m 
    4.54000m  449.6904m 
    4.54400m  447.4364m 
    4.54800m  445.1825m 
    4.55200m  442.9286m 
    4.55600m  440.6746m 
    4.56000m  438.4207m 
    4.56400m  436.1668m 
    4.56800m  433.9128m 
    4.57200m  431.6589m 
    4.57600m  429.4050m 
    4.58000m  427.1510m 
    4.58400m  424.8971m 
    4.58800m  422.6431m 
    4.59200m  420.3892m 
    4.59600m  418.1353m 
    4.60000m  415.8813m 
    4.60400m  413.5086m 
    4.60800m  411.1218m 
    4.61200m  408.7350m 
    4.61600m  406.3481m 
    4.62000m  403.9613m 
    4.62400m  401.5745m 
    4.62800m  399.1877m 
    4.63200m  396.8009m 
    4.63600m  394.4141m 
    4.64000m  392.0273m 
    4.64400m  389.6405m 
    4.64800m  387.2537m 
    4.65200m  384.8668m 
    4.65600m  382.4800m 
    4.66000m  380.0932m 
    4.66400m  377.7064m 
    4.66800m  375.3196m 
    4.67200m  372.9328m 
    4.67600m  370.5460m 
    4.68000m  368.1592m 
    4.68400m  365.7723m 
    4.68800m  363.3162m 
    4.69200m  360.8447m 
    4.69600m  358.3732m 
    4.70000m  355.9017m 
    4.70400m  353.4302m 
    4.70800m  350.9587m 
    4.71200m  348.4872m 
    4.71600m  346.0157m 
    4.72000m  343.5442m 
    4.72400m  341.0727m 
    4.72800m  338.6012m 
    4.73200m  336.1297m 
    4.73600m  333.6582m 
    4.74000m  331.1867m 
    4.74400m  328.7152m 
    4.74800m  326.2437m 
    4.75200m  323.7722m 
    4.75600m  321.3007m 
    4.76000m  318.8292m 
    4.76400m  316.3577m 
    4.76800m  313.8862m 
    4.77200m  311.4147m 
    4.77600m  308.9432m 
    4.78000m  306.4717m 
    4.78400m  304.0002m 
    4.78800m  301.5287m 
    4.79200m  299.0572m 
    4.79600m  296.5857m 
    4.80000m  294.1142m 
    4.80400m  291.6427m 
    4.80800m  289.1712m 
    4.81200m  286.6997m 
    4.81600m  284.2282m 
    4.82000m  281.7567m 
    4.82400m  279.2852m 
    4.82800m  276.8137m 
    4.83200m  274.3422m 
    4.83600m  271.8707m 
    4.84000m  269.3992m 
    4.84400m  266.9277m 
    4.84800m  264.4562m 
    4.85200m  261.9847m 
    4.85600m  259.5132m 
    4.86000m  257.0417m 
    4.86400m  254.5702m 
    4.86800m  252.0987m 
    4.87200m  249.6272m 
    4.87600m  247.1557m 
    4.88000m  244.6842m 
    4.88400m  242.2127m 
    4.88800m  239.7412m 
    4.89200m  237.2697m 
    4.89600m  234.7982m 
    4.90000m  232.3267m 
    4.90400m  229.8552m 
    4.90800m  227.3837m 
    4.91200m  224.9122m 
    4.91600m  222.4407m 
    4.92000m  219.9692m 
    4.92400m  217.4977m 
    4.92800m  215.0262m 
    4.93200m  212.5547m 
    4.93600m  210.0832m 
    4.94000m  207.6117m 
    4.94400m  205.1402m 
    4.94800m  202.6687m 
    4.95200m  200.1972m 
    4.95600m  197.6990m 
    4.96000m  195.1568m 
    4.96400m  192.6147m 
    4.96800m  190.0726m 
    4.97200m  187.5305m 
    4.97600m  184.9883m 
    4.98000m  182.4462m 
    4.98400m  179.9041m 
    4.98800m  177.3620m 
    4.99200m  174.8198m 
    4.99600m  172.2777m 
    5.00000m  169.7356m 
    5.00400m  167.1691m 
    5.00800m  164.6025m 
    5.01200m  162.0360m 
    5.01600m  159.4695m 
    5.02000m  156.9029m 
    5.02400m  154.3364m 
    5.02800m  151.7699m 
    5.03200m  149.2033m 
    5.03600m  146.6368m 
    5.04000m  144.0703m 
    5.04400m  141.5037m 
    5.04800m  138.9372m 
    5.05200m  136.3707m 
    5.05600m  133.8041m 
    5.06000m  131.2376m 
    5.06400m  128.6711m 
    5.06800m  126.1045m 
    5.07200m  123.5380m 
    5.07600m  120.9656m 
    5.08000m  118.3918m 
    5.08400m  115.8179m 
    5.08800m  113.2440m 
    5.09200m  110.6701m 
    5.09600m  108.0963m 
    5.10000m  105.5224m 
    5.10400m  102.9485m 
    5.10800m  100.3747m 
    5.11200m   97.8008m 
    5.11600m   95.2269m 
    5.12000m   92.6530m 
    5.12400m   90.0792m 
    5.12800m   87.5053m 
    5.13200m   84.9314m 
    5.13600m   82.3575m 
    5.14000m   79.7837m 
    5.14400m   77.2098m 
    5.14800m   74.6359m 
    5.15200m   72.0620m 
    5.15600m   69.4882m 
    5.16000m   66.9143m 
    5.16400m   64.3404m 
    5.16800m   61.7666m 
    5.17200m   59.1927m 
    5.17600m   56.6188m 
    5.18000m   54.0449m 
    5.18400m   51.4711m 
    5.18800m   48.8972m 
    5.19200m   46.3233m 
    5.19600m   43.7494m 
    5.20000m   41.1756m 
    5.20400m   38.6017m 
    5.20800m   36.0278m 
    5.21200m   33.4539m 
    5.21600m   30.8801m 
    5.22000m   28.3062m 
    5.22400m   25.7323m 
    5.22800m   23.1584m 
    5.23200m   20.5846m 
    5.23600m   18.0107m 
    5.24000m   15.4368m 
    5.24400m   12.8630m 
    5.24800m   10.2891m 
    5.25200m    7.7152m 
    5.25600m    5.1413m 
    5.26000m    2.5675m 
    5.26400m   -7.9306u 
    5.26800m   -2.5857m 
    5.27200m   -5.1635m 
    5.27600m   -7.7414m 
    5.28000m  -10.3192m 
    5.28400m  -12.8970m 
    5.28800m  -15.4748m 
    5.29200m  -18.0526m 
    5.29600m  -20.6304m 
    5.30000m  -23.2082m 
    5.30400m  -25.7860m 
    5.30800m  -28.3638m 
    5.31200m  -30.9416m 
    5.31600m  -33.5194m 
    5.32000m  -36.0972m 
    5.32400m  -38.6750m 
    5.32800m  -41.2529m 
    5.33200m  -43.8307m 
    5.33600m  -46.4085m 
    5.34000m  -48.9596m 
    5.34400m  -51.5103m 
    5.34800m  -54.0611m 
    5.35200m  -56.6118m 
    5.35600m  -59.1626m 
    5.36000m  -61.7133m 
    5.36400m  -64.2640m 
    5.36800m  -66.8148m 
    5.37200m  -69.3655m 
    5.37600m  -71.9162m 
    5.38000m  -74.4670m 
    5.38400m  -77.0177m 
    5.38800m  -79.5685m 
    5.39200m  -82.1192m 
    5.39600m  -84.6699m 
    5.40000m  -87.2207m 
    5.40400m  -89.7714m 
    5.40800m  -92.3221m 
    5.41200m  -94.8729m 
    5.41600m  -97.4236m 
    5.42000m  -99.9744m 
    5.42400m -102.5251m 
    5.42800m -105.0758m 
    5.43200m -107.6266m 
    5.43600m -110.1773m 
    5.44000m -112.7280m 
    5.44400m -115.2788m 
    5.44800m -117.8295m 
    5.45200m -120.3803m 
    5.45600m -122.9310m 
    5.46000m -125.4817m 
    5.46400m -128.0325m 
    5.46800m -130.5832m 
    5.47200m -133.1339m 
    5.47600m -135.6847m 
    5.48000m -138.2354m 
    5.48400m -140.7862m 
    5.48800m -143.3369m 
    5.49200m -145.8876m 
    5.49600m -148.4384m 
    5.50000m -150.9891m 
    5.50400m -153.5398m 
    5.50800m -156.0906m 
    5.51200m -158.6413m 
    5.51600m -161.1921m 
    5.52000m -163.7428m 
    5.52400m -166.2935m 
    5.52800m -168.8443m 
    5.53200m -171.3950m 
    5.53600m -173.9457m 
    5.54000m -176.4965m 
    5.54400m -179.0472m 
    5.54800m -181.5980m 
    5.55200m -184.1487m 
    5.55600m -186.6994m 
    5.56000m -189.2502m 
    5.56400m -191.8009m 
    5.56800m -194.3516m 
    5.57200m -196.8984m 
    5.57600m -199.4114m 
    5.58000m -201.9245m 
    5.58400m -204.4376m 
    5.58800m -206.9506m 
    5.59200m -209.4637m 
    5.59600m -211.9767m 
    5.60000m -214.4898m 
    5.60400m -217.0029m 
    5.60800m -219.5159m 
    5.61200m -222.0290m 
    5.61600m -224.5421m 
    5.62000m -227.0551m 
    5.62400m -229.5682m 
    5.62800m -232.0812m 
    5.63200m -234.5943m 
    5.63600m -237.1074m 
    5.64000m -239.6204m 
    5.64400m -242.1335m 
    5.64800m -244.6465m 
    5.65200m -247.1596m 
    5.65600m -249.6727m 
    5.66000m -252.1550m 
    5.66400m -254.5813m 
    5.66800m -257.0077m 
    5.67200m -259.4341m 
    5.67600m -261.8604m 
    5.68000m -264.2868m 
    5.68400m -266.7132m 
    5.68800m -269.1395m 
    5.69200m -271.5659m 
    5.69600m -273.9922m 
    5.70000m -276.4186m 
    5.70400m -278.8450m 
    5.70800m -281.2713m 
    5.71200m -283.6977m 
    5.71600m -286.1240m 
    5.72000m -288.5504m 
    5.72400m -290.9768m 
    5.72800m -293.4031m 
    5.73200m -295.8295m 
    5.73600m -298.2559m 
    5.74000m -300.6822m 
    5.74400m -303.1086m 
    5.74800m -305.5349m 
    5.75200m -307.9613m 
    5.75600m -310.3877m 
    5.76000m -312.8140m 
    5.76400m -315.2404m 
    5.76800m -317.6667m 
    5.77200m -320.0931m 
    5.77600m -322.5195m 
    5.78000m -324.9458m 
    5.78400m -327.3722m 
    5.78800m -329.7986m 
    5.79200m -332.2249m 
    5.79600m -334.6513m 
    5.80000m -337.0776m 
    5.80400m -339.5040m 
    5.80800m -341.9304m 
    5.81200m -344.3567m 
    5.81600m -346.7831m 
    5.82000m -349.2094m 
    5.82400m -351.6358m 
    5.82800m -354.0622m 
    5.83200m -356.4885m 
    5.83600m -358.9149m 
    5.84000m -361.3413m 
    5.84400m -363.7676m 
    5.84800m -366.1940m 
    5.85200m -368.6203m 
    5.85600m -371.0467m 
    5.86000m -373.4731m 
    5.86400m -375.8994m 
    5.86800m -378.3258m 
    5.87200m -380.7521m 
    5.87600m -383.1785m 
    5.88000m -385.6049m 
    5.88400m -388.0312m 
    5.88800m -390.4576m 
    5.89200m -392.8840m 
    5.89600m -395.3103m 
    5.90000m -397.7367m 
    5.90400m -400.1630m 
    5.90800m -402.5894m 
    5.91200m -405.0158m 
    5.91600m -407.4421m 
    5.92000m -409.8685m 
    5.92400m -412.2949m 
    5.92800m -414.7212m 
    5.93200m -417.1476m 
    5.93600m -419.5739m 
    5.94000m -421.9226m 
    5.94400m -424.2453m 
    5.94800m -426.5680m 
    5.95200m -428.8907m 
    5.95600m -431.2134m 
    5.96000m -433.5361m 
    5.96400m -435.8588m 
    5.96800m -438.1815m 
    5.97200m -440.5042m 
    5.97600m -442.8269m 
    5.98000m -445.1496m 
    5.98400m -447.4723m 
    5.98800m -449.7950m 
    5.99200m -452.1177m 
    5.99600m -454.4404m 
    6.00000m -456.7631m 
    6.00400m -459.0858m 
    6.00800m -461.4085m 
    6.01200m -463.7312m 
    6.01600m -466.0539m 
    6.02000m -468.3766m 
    6.02400m -470.6696m 
    6.02800m -472.8422m 
    6.03200m -475.0147m 
    6.03600m -477.1873m 
    6.04000m -479.3599m 
    6.04400m -481.5324m 
    6.04800m -483.7050m 
    6.05200m -485.8775m 
    6.05600m -488.0501m 
    6.06000m -490.2227m 
    6.06400m -492.3952m 
    6.06800m -494.5678m 
    6.07200m -496.7404m 
    6.07600m -498.9129m 
    6.08000m -501.0855m 
    6.08400m -503.2580m 
    6.08800m -505.4306m 
    6.09200m -507.6032m 
    6.09600m -509.7757m 
    6.10000m -511.9483m 
    6.10400m -514.1208m 
    6.10800m -516.2934m 
    6.11200m -518.4660m 
    6.11600m -520.6385m 
    6.12000m -522.8111m 
    6.12400m -524.9837m 
    6.12800m -527.1562m 
    6.13200m -529.3288m 
    6.13600m -531.5013m 
    6.14000m -533.6739m 
    6.14400m -535.8465m 
    6.14800m -538.0190m 
    6.15200m -540.1916m 
    6.15600m -542.3642m 
    6.16000m -544.5367m 
    6.16400m -546.7093m 
    6.16800m -548.8818m 
    6.17200m -551.0544m 
    6.17600m -553.2270m 
    6.18000m -555.3995m 
    6.18400m -557.5721m 
    6.18800m -559.7446m 
    6.19200m -561.9172m 
    6.19600m -564.0898m 
    6.20000m -566.2623m 
    6.20400m -568.4349m 
    6.20800m -570.6075m 
    6.21200m -572.7800m 
    6.21600m -574.9526m 
    6.22000m -577.1251m 
    6.22400m -579.2977m 
    6.22800m -581.4703m 
    6.23200m -583.6428m 
    6.23600m -585.8154m 
    6.24000m -587.9880m 
    6.24400m -590.1605m 
    6.24800m -592.3331m 
    6.25200m -594.5056m 
    6.25600m -596.6782m 
    6.26000m -598.8508m 
    6.26400m -601.0233m 
    6.26800m -603.1959m 
    6.27200m -605.3684m 
    6.27600m -607.5410m 
    6.28000m -609.7136m 
    6.28400m -611.8861m 
    6.28800m -614.0587m 
    6.29200m -616.2313m 
    6.29600m -618.4038m 
    6.30000m -620.5243m 
    6.30400m -622.4725m 
    6.30800m -624.4207m 
    6.31200m -626.3689m 
    6.31600m -628.3171m 
    6.32000m -630.2654m 
    6.32400m -632.2136m 
    6.32800m -634.1618m 
    6.33200m -636.1100m 
    6.33600m -638.0582m 
    6.34000m -640.0065m 
    6.34400m -641.9547m 
    6.34800m -643.9029m 
    6.35200m -645.8511m 
    6.35600m -647.7994m 
    6.36000m -649.7476m 
    6.36400m -651.6958m 
    6.36800m -653.6440m 
    6.37200m -655.5922m 
    6.37600m -657.5405m 
    6.38000m -659.4887m 
    6.38400m -661.4369m 
    6.38800m -663.3851m 
    6.39200m -665.3333m 
    6.39600m -667.2816m 
    6.40000m -669.2298m 
    6.40400m -671.1780m 
    6.40800m -673.1262m 
    6.41200m -675.0744m 
    6.41600m -677.0227m 
    6.42000m -678.9709m 
    6.42400m -680.9191m 
    6.42800m -682.8673m 
    6.43200m -684.8155m 
    6.43600m -686.7638m 
    6.44000m -688.7120m 
    6.44400m -690.6602m 
    6.44800m -692.6084m 
    6.45200m -694.5567m 
    6.45600m -696.5049m 
    6.46000m -698.4531m 
    6.46400m -700.4013m 
    6.46800m -702.3495m 
    6.47200m -704.2978m 
    6.47600m -706.2460m 
    6.48000m -708.1942m 
    6.48400m -710.1424m 
    6.48800m -712.0906m 
    6.49200m -714.0389m 
    6.49600m -715.9871m 
    6.50000m -717.9353m 
    6.50400m -719.7112m 
    6.50800m -721.4872m 
    6.51200m -723.2631m 
    6.51600m -725.0391m 
    6.52000m -726.8150m 
    6.52400m -728.5910m 
    6.52800m -730.3669m 
    6.53200m -732.1428m 
    6.53600m -733.9188m 
    6.54000m -735.6947m 
    6.54400m -737.4707m 
    6.54800m -739.2466m 
    6.55200m -741.0226m 
    6.55600m -742.7985m 
    6.56000m -744.5305m 
    6.56400m -746.2387m 
    6.56800m -747.9469m 
    6.57200m -749.6550m 
    6.57600m -751.3632m 
    6.58000m -753.0714m 
    6.58400m -754.7795m 
    6.58800m -756.4877m 
    6.59200m -758.1959m 
    6.59600m -759.9040m 
    6.60000m -761.6122m 
    6.60400m -763.3204m 
    6.60800m -765.0285m 
    6.61200m -766.7367m 
    6.61600m -768.4449m 
    6.62000m -770.1531m 
    6.62400m -771.8612m 
    6.62800m -773.5694m 
    6.63200m -775.2776m 
    6.63600m -776.9857m 
    6.64000m -778.6939m 
    6.64400m -780.4021m 
    6.64800m -782.1102m 
    6.65200m -783.8184m 
    6.65600m -785.5266m 
    6.66000m -787.2347m 
    6.66400m -788.9429m 
    6.66800m -790.6511m 
    6.67200m -792.2895m 
    6.67600m -793.8813m 
    6.68000m -795.4730m 
    6.68400m -797.0648m 
    6.68800m -798.6566m 
    6.69200m -800.2484m 
    6.69600m -801.8402m 
    6.70000m -803.4320m 
    6.70400m -805.0238m 
    6.70800m -806.6156m 
    6.71200m -808.2073m 
    6.71600m -809.7991m 
    6.72000m -811.3909m 
    6.72400m -812.9827m 
    6.72800m -814.5745m 
    6.73200m -816.1663m 
    6.73600m -817.7581m 
    6.74000m -819.3499m 
    6.74400m -820.9416m 
    6.74800m -822.4352m 
    6.75200m -823.8114m 
    6.75600m -825.1877m 
    6.76000m -826.5640m 
    6.76400m -827.9403m 
    6.76800m -829.3166m 
    6.77200m -830.6929m 
    6.77600m -832.0691m 
    6.78000m -833.4454m 
    6.78400m -834.8217m 
    6.78800m -836.1980m 
    6.79200m -837.5743m 
    6.79600m -838.9506m 
    6.80000m -840.3269m 
    6.80400m -841.7031m 
    6.80800m -843.0794m 
    6.81200m -844.4557m 
    6.81600m -845.8320m 
    6.82000m -847.2083m 
    6.82400m -848.5846m 
    6.82800m -849.9608m 
    6.83200m -851.3371m 
    6.83600m -852.7134m 
    6.84000m -854.0897m 
    6.84400m -855.4660m 
    6.84800m -856.8423m 
    6.85200m -858.2186m 
    6.85600m -859.5948m 
    6.86000m -860.9711m 
    6.86400m -862.3474m 
    6.86800m -863.7237m 
    6.87200m -865.1000m 
    6.87600m -866.4763m 
    6.88000m -867.8525m 
    6.88400m -869.2288m 
    6.88800m -870.6051m 
    6.89200m -871.9814m 
    6.89600m -873.3577m 
    6.90000m -874.7340m 
    6.90400m -876.1103m 
    6.90800m -877.4865m 
    6.91200m -878.8628m 
    6.91600m -880.2391m 
    6.92000m -881.6154m 
    6.92400m -882.9917m 
    6.92800m -884.3680m 
    6.93200m -885.7442m 
    6.93600m -887.1205m 
    6.94000m -888.4968m 
    6.94400m -889.8731m 
    6.94800m -891.2494m 
    6.95200m -892.6257m 
    6.95600m -894.0019m 
    6.96000m -895.3782m 
    6.96400m -896.7545m 
    6.96800m -898.1308m 
    6.97200m -899.5071m 
    6.97600m -900.8834m 
    6.98000m -902.2597m 
    6.98400m -903.6359m 
    6.98800m -905.0122m 
    6.99200m -906.3405m 
    6.99600m -907.4727m 
    7.00000m -908.6049m 
    7.00400m -909.7371m 
    7.00800m -910.8693m 
    7.01200m -912.0014m 
    7.01600m -913.1336m 
    7.02000m -914.2658m 
    7.02400m -915.3980m 
    7.02800m -916.5302m 
    7.03200m -917.6624m 
    7.03600m -918.7946m 
    7.04000m -919.9268m 
    7.04400m -921.0590m 
    7.04800m -922.1912m 
    7.05200m -923.3234m 
    7.05600m -924.4556m 
    7.06000m -925.5878m 
    7.06400m -926.7200m 
    7.06800m -927.8522m 
    7.07200m -928.9844m 
    7.07600m -930.1166m 
    7.08000m -931.2488m 
    7.08400m -932.3810m 
    7.08800m -933.5132m 
    7.09200m -934.6454m 
    7.09600m -935.7776m 
    7.10000m -936.7881m 
    7.10400m -937.7790m 
    7.10800m -938.7700m 
    7.11200m -939.7610m 
    7.11600m -940.7520m 
    7.12000m -941.7429m 
    7.12400m -942.7339m 
    7.12800m -943.7249m 
    7.13200m -944.7159m 
    7.13600m -945.7068m 
    7.14000m -946.6978m 
    7.14400m -947.6888m 
    7.14800m -948.6798m 
    7.15200m -949.6708m 
    7.15600m -950.6617m 
    7.16000m -951.6527m 
    7.16400m -952.6437m 
    7.16800m -953.6347m 
    7.17200m -954.6256m 
    7.17600m -955.6166m 
    7.18000m -956.6076m 
    7.18400m -957.3799m 
    7.18800m -958.0956m 
    7.19200m -958.8113m 
    7.19600m -959.5270m 
    7.20000m -960.2427m 
    7.20400m -960.9584m 
    7.20800m -961.6741m 
    7.21200m -962.3898m 
    7.21600m -963.1055m 
    7.22000m -963.8212m 
    7.22400m -964.5369m 
    7.22800m -965.2526m 
    7.23200m -965.9683m 
    7.23600m -966.6840m 
    7.24000m -967.3997m 
    7.24400m -968.1155m 
    7.24800m -968.8312m 
    7.25200m -969.5469m 
    7.25600m -970.2626m 
    7.26000m -970.9783m 
    7.26400m -971.6940m 
    7.26800m -972.4097m 
    7.27200m -973.1254m 
    7.27600m -973.8411m 
    7.28000m -974.5568m 
    7.28400m -975.2725m 
    7.28800m -975.9882m 
    7.29200m -976.7039m 
    7.29600m -977.4196m 
    7.30000m -978.1353m 
    7.30400m -978.8510m 
    7.30800m -979.5667m 
    7.31200m -980.2824m 
    7.31600m -980.9981m 
    7.32000m -981.7138m 
    7.32400m -982.4295m 
    7.32800m -983.1452m 
    7.33200m -983.8609m 
    7.33600m -984.5766m 
    7.34000m -985.2923m 
    7.34400m -986.0080m 
    7.34800m -986.7238m 
    7.35200m -987.4395m 
    7.35600m -988.1552m 
    7.36000m -988.8709m 
    7.36400m -989.5866m 
    7.36800m -990.3023m 
    7.37200m -991.0180m 
    7.37600m -991.7337m 
    7.38000m -992.4494m 
    7.38400m -993.1651m 
    7.38800m -993.8808m 
    7.39200m -994.5965m 
    7.39600m -995.3122m 
    7.40000m -996.0279m 
    7.40400m -996.7436m 
    7.40800m -997.4593m 
    7.41200m -998.1750m 
    7.41600m -998.8907m 
    7.42000m -999.6064m 
    7.42400m   -1.0003  
    7.42800m   -1.0010  
    7.43200m   -1.0018  
    7.43600m   -1.0025  
    7.44000m   -1.0032  
    7.44400m   -1.0039  
    7.44800m   -1.0046  
    7.45200m   -1.0052  
    7.45600m   -1.0057  
    7.46000m   -1.0062  
    7.46400m   -1.0066  
    7.46800m   -1.0071  
    7.47200m   -1.0076  
    7.47600m   -1.0080  
    7.48000m   -1.0085  
    7.48400m   -1.0090  
    7.48800m   -1.0094  
    7.49200m   -1.0099  
    7.49600m   -1.0104  
    7.50000m   -1.0108  
    7.50400m   -1.0111  
    7.50800m   -1.0114  
    7.51200m   -1.0117  
    7.51600m   -1.0120  
    7.52000m   -1.0123  
    7.52400m   -1.0126  
    7.52800m   -1.0129  
    7.53200m   -1.0132  
    7.53600m   -1.0135  
    7.54000m   -1.0138  
    7.54400m   -1.0141  
    7.54800m   -1.0144  
    7.55200m   -1.0147  
    7.55600m   -1.0150  
    7.56000m   -1.0153  
    7.56400m   -1.0156  
    7.56800m   -1.0159  
    7.57200m   -1.0162  
    7.57600m   -1.0165  
    7.58000m   -1.0168  
    7.58400m   -1.0170  
    7.58800m   -1.0173  
    7.59200m   -1.0175  
    7.59600m   -1.0178  
    7.60000m   -1.0180  
    7.60400m   -1.0182  
    7.60800m   -1.0185  
    7.61200m   -1.0187  
    7.61600m   -1.0190  
    7.62000m   -1.0192  
    7.62400m   -1.0194  
    7.62800m   -1.0197  
    7.63200m   -1.0199  
    7.63600m   -1.0202  
    7.64000m   -1.0204  
    7.64400m   -1.0207  
    7.64800m   -1.0209  
    7.65200m   -1.0211  
    7.65600m   -1.0212  
    7.66000m   -1.0212  
    7.66400m   -1.0212  
    7.66800m   -1.0213  
    7.67200m   -1.0213  
    7.67600m   -1.0213  
    7.68000m   -1.0213  
    7.68400m   -1.0214  
    7.68800m   -1.0214  
    7.69200m   -1.0214  
    7.69600m   -1.0214  
    7.70000m   -1.0215  
    7.70400m   -1.0215  
    7.70800m   -1.0215  
    7.71200m   -1.0216  
    7.71600m   -1.0216  
    7.72000m   -1.0216  
    7.72400m   -1.0216  
    7.72800m   -1.0217  
    7.73200m   -1.0217  
    7.73600m   -1.0217  
    7.74000m   -1.0217  
    7.74400m   -1.0218  
    7.74800m   -1.0218  
    7.75200m   -1.0218  
    7.75600m   -1.0218  
    7.76000m   -1.0219  
    7.76400m   -1.0219  
    7.76800m   -1.0219  
    7.77200m   -1.0219  
    7.77600m   -1.0220  
    7.78000m   -1.0220  
    7.78400m   -1.0220  
    7.78800m   -1.0221  
    7.79200m   -1.0221  
    7.79600m   -1.0221  
    7.80000m   -1.0221  
    7.80400m   -1.0222  
    7.80800m   -1.0222  
    7.81200m   -1.0222  
    7.81600m   -1.0222  
    7.82000m   -1.0223  
    7.82400m   -1.0223  
    7.82800m   -1.0223  
    7.83200m   -1.0223  
    7.83600m   -1.0224  
    7.84000m   -1.0224  
    7.84400m   -1.0224  
    7.84800m   -1.0224  
    7.85200m   -1.0224  
    7.85600m   -1.0221  
    7.86000m   -1.0218  
    7.86400m   -1.0215  
    7.86800m   -1.0212  
    7.87200m   -1.0209  
    7.87600m   -1.0206  
    7.88000m   -1.0203  
    7.88400m   -1.0200  
    7.88800m   -1.0197  
    7.89200m   -1.0194  
    7.89600m   -1.0191  
    7.90000m   -1.0188  
    7.90400m   -1.0185  
    7.90800m   -1.0181  
    7.91200m   -1.0178  
    7.91600m   -1.0175  
    7.92000m   -1.0172  
    7.92400m   -1.0169  
    7.92800m   -1.0166  
    7.93200m   -1.0163  
    7.93600m   -1.0160  
    7.94000m   -1.0157  
    7.94400m   -1.0154  
    7.94800m   -1.0151  
    7.95200m   -1.0148  
    7.95600m   -1.0145  
    7.96000m   -1.0142  
    7.96400m   -1.0139  
    7.96800m   -1.0136  
    7.97200m   -1.0133  
    7.97600m   -1.0130  
    7.98000m   -1.0127  
    7.98400m   -1.0124  
    7.98800m   -1.0120  
    7.99200m   -1.0117  
    7.99600m   -1.0114  
    8.00000m   -1.0111  
    8.00400m   -1.0108  
    8.00800m   -1.0105  
    8.01200m   -1.0102  
    8.01600m   -1.0099  
    8.02000m   -1.0096  
    8.02400m   -1.0093  
    8.02800m   -1.0090  
    8.03200m   -1.0087  
    8.03600m   -1.0084  
    8.04000m   -1.0081  
    8.04400m   -1.0078  
    8.04800m   -1.0075  
    8.05200m   -1.0072  
    8.05600m   -1.0069  
    8.06000m   -1.0066  
    8.06400m   -1.0062  
    8.06800m   -1.0059  
    8.07200m   -1.0056  
    8.07600m   -1.0050  
    8.08000m   -1.0044  
    8.08400m   -1.0039  
    8.08800m   -1.0033  
    8.09200m   -1.0027  
    8.09600m   -1.0022  
    8.10000m   -1.0016  
    8.10400m   -1.0010  
    8.10800m   -1.0004  
    8.11200m -999.8819m 
    8.11600m -999.3146m 
    8.12000m -998.7472m 
    8.12400m -998.1799m 
    8.12800m -997.6125m 
    8.13200m -997.0452m 
    8.13600m -996.4778m 
    8.14000m -995.9105m 
    8.14400m -995.3431m 
    8.14800m -994.7758m 
    8.15200m -994.2084m 
    8.15600m -993.6411m 
    8.16000m -993.0737m 
    8.16400m -992.5064m 
    8.16800m -991.9390m 
    8.17200m -991.3717m 
    8.17600m -990.8043m 
    8.18000m -990.1629m 
    8.18400m -989.4424m 
    8.18800m -988.7220m 
    8.19200m -988.0016m 
    8.19600m -987.2811m 
    8.20000m -986.5607m 
    8.20400m -985.8402m 
    8.20800m -985.1198m 
    8.21200m -984.3994m 
    8.21600m -983.6789m 
    8.22000m -982.9585m 
    8.22400m -982.2381m 
    8.22800m -981.5176m 
    8.23200m -980.7972m 
    8.23600m -980.0768m 
    8.24000m -979.3563m 
    8.24400m -978.6359m 
    8.24800m -977.9155m 
    8.25200m -977.1950m 
    8.25600m -976.4746m 
    8.26000m -975.6640m 
    8.26400m -974.6951m 
    8.26800m -973.7262m 
    8.27200m -972.7574m 
    8.27600m -971.7885m 
    8.28000m -970.8196m 
    8.28400m -969.8508m 
    8.28800m -968.8819m 
    8.29200m -967.9131m 
    8.29600m -966.9442m 
    8.30000m -965.9753m 
    8.30400m -965.0065m 
    8.30800m -964.0376m 
    8.31200m -963.0688m 
    8.31600m -962.0999m 
    8.32000m -961.1310m 
    8.32400m -960.1622m 
    8.32800m -959.1933m 
    8.33200m -958.2244m 
    8.33600m -957.2556m 
    8.34000m -956.2867m 
    8.34400m -955.3179m 
    8.34800m -954.3490m 
    8.35200m -953.3801m 
    8.35600m -952.4113m 
    8.36000m -951.4424m 
    8.36400m -950.4736m 
    8.36800m -949.5047m 
    8.37200m -948.5358m 
    8.37600m -947.5670m 
    8.38000m -946.5981m 
    8.38400m -945.6293m 
    8.38800m -944.6604m 
    8.39200m -943.6915m 
    8.39600m -942.7227m 
    8.40000m -941.7538m 
    8.40400m -940.7849m 
    8.40800m -939.8161m 
    8.41200m -938.8472m 
    8.41600m -937.8784m 
    8.42000m -936.9095m 
    8.42400m -935.9406m 
    8.42800m -934.9718m 
    8.43200m -934.0029m 
    8.43600m -933.0341m 
    8.44000m -932.0652m 
    8.44400m -931.0963m 
    8.44800m -930.1275m 
    8.45200m -929.1586m 
    8.45600m -928.1898m 
    8.46000m -927.2209m 
    8.46400m -926.2520m 
    8.46800m -925.2832m 
    8.47200m -924.3143m 
    8.47600m -923.3454m 
    8.48000m -922.3766m 
    8.48400m -921.4077m 
    8.48800m -920.4389m 
    8.49200m -919.4700m 
    8.49600m -918.5011m 
    8.50000m -917.5323m 
    8.50400m -916.2957m 
    8.50800m -915.0592m 
    8.51200m -913.8226m 
    8.51600m -912.5860m 
    8.52000m -911.3495m 
    8.52400m -910.1129m 
    8.52800m -908.8763m 
    8.53200m -907.6398m 
    8.53600m -906.4032m 
    8.54000m -905.1666m 
    8.54400m -903.9301m 
    8.54800m -902.6935m 
    8.55200m -901.4570m 
    8.55600m -900.2204m 
    8.56000m -898.9838m 
    8.56400m -897.6956m 
    8.56800m -896.3919m 
    8.57200m -895.0883m 
    8.57600m -893.7846m 
    8.58000m -892.4810m 
    8.58400m -891.1773m 
    8.58800m -889.8737m 
    8.59200m -888.5700m 
    8.59600m -887.2664m 
    8.60000m -885.9627m 
    8.60400m -884.6591m 
    8.60800m -883.3554m 
    8.61200m -882.0518m 
    8.61600m -880.7481m 
    8.62000m -879.4445m 
    8.62400m -878.1408m 
    8.62800m -876.8372m 
    8.63200m -875.5335m 
    8.63600m -874.2299m 
    8.64000m -872.9262m 
    8.64400m -871.6226m 
    8.64800m -870.3190m 
    8.65200m -869.0153m 
    8.65600m -867.7117m 
    8.66000m -866.3110m 
    8.66400m -864.7575m 
    8.66800m -863.2040m 
    8.67200m -861.6505m 
    8.67600m -860.0970m 
    8.68000m -858.5435m 
    8.68400m -856.9900m 
    8.68800m -855.4365m 
    8.69200m -853.8830m 
    8.69600m -852.3295m 
    8.70000m -850.7760m 
    8.70400m -849.2225m 
    8.70800m -847.6690m 
    8.71200m -846.1155m 
    8.71600m -844.5620m 
    8.72000m -843.0085m 
    8.72400m -841.4550m 
    8.72800m -839.9015m 
    8.73200m -838.3480m 
    8.73600m -836.7945m 
    8.74000m -835.2410m 
    8.74400m -833.6875m 
    8.74800m -832.1339m 
    8.75200m -830.5804m 
    8.75600m -829.0269m 
    8.76000m -827.4734m 
    8.76400m -825.9199m 
    8.76800m -824.3664m 
    8.77200m -822.8129m 
    8.77600m -821.2594m 
    8.78000m -819.7059m 
    8.78400m -818.1524m 
    8.78800m -816.5989m 
    8.79200m -815.0454m 
    8.79600m -813.4919m 
    8.80000m -811.9384m 
    8.80400m -810.3849m 
    8.80800m -808.8314m 
    8.81200m -807.2779m 
    8.81600m -805.7244m 
    8.82000m -804.1709m 
    8.82400m -802.6174m 
    8.82800m -801.0639m 
    8.83200m -799.5104m 
    8.83600m -797.9569m 
    8.84000m -796.4034m 
    8.84400m -794.8499m 
    8.84800m -793.2964m 
    8.85200m -791.7429m 
    8.85600m -790.1894m 
    8.86000m -788.6359m 
    8.86400m -787.0824m 
    8.86800m -785.5289m 
    8.87200m -783.9754m 
    8.87600m -782.4219m 
    8.88000m -780.8684m 
    8.88400m -779.3149m 
    8.88800m -777.7614m 
    8.89200m -776.2079m 
    8.89600m -774.6544m 
    8.90000m -773.1009m 
    8.90400m -771.5474m 
    8.90800m -769.9939m 
    8.91200m -768.4404m 
    8.91600m -766.8869m 
    8.92000m -765.3334m 
    8.92400m -763.7799m 
    8.92800m -762.2264m 
    8.93200m -760.6729m 
    8.93600m -759.1194m 
    8.94000m -757.5659m 
    8.94400m -755.9423m 
    8.94800m -754.0587m 
    8.95200m -752.1752m 
    8.95600m -750.2917m 
    8.96000m -748.4081m 
    8.96400m -746.5246m 
    8.96800m -744.6411m 
    8.97200m -742.7575m 
    8.97600m -740.8740m 
    8.98000m -738.9904m 
    8.98400m -737.1069m 
    8.98800m -735.2234m 
    8.99200m -733.3398m 
    8.99600m -731.4563m 
    9.00000m -729.5728m 
    9.00400m -727.6892m 
    9.00800m -725.8057m 
    9.01200m -723.9222m 
    9.01600m -722.0386m 
    9.02000m -720.1551m 
    9.02400m -718.2715m 
    9.02800m -716.3880m 
    9.03200m -714.5045m 
    9.03600m -712.6209m 
    9.04000m -710.7374m 
    9.04400m -708.8539m 
    9.04800m -706.9703m 
    9.05200m -705.0868m 
    9.05600m -703.2033m 
    9.06000m -701.3197m 
    9.06400m -699.4362m 
    9.06800m -697.5526m 
    9.07200m -695.6691m 
    9.07600m -693.7856m 
    9.08000m -691.9020m 
    9.08400m -690.0185m 
    9.08800m -688.1350m 
    9.09200m -686.2514m 
    9.09600m -684.3679m 
    9.10000m -682.4844m 
    9.10400m -680.6008m 
    9.10800m -678.7173m 
    9.11200m -676.8337m 
    9.11600m -674.9502m 
    9.12000m -673.0667m 
    9.12400m -671.1831m 
    9.12800m -669.2996m 
    9.13200m -667.4161m 
    9.13600m -665.5325m 
    9.14000m -663.6490m 
    9.14400m -661.7655m 
    9.14800m -659.8819m 
    9.15200m -657.9984m 
    9.15600m -656.1148m 
    9.16000m -654.2313m 
    9.16400m -652.3478m 
    9.16800m -650.4642m 
    9.17200m -648.5807m 
    9.17600m -646.6972m 
    9.18000m -644.8136m 
    9.18400m -642.9301m 
    9.18800m -641.0466m 
    9.19200m -639.1630m 
    9.19600m -637.2795m 
    9.20000m -635.3959m 
    9.20400m -633.5124m 
    9.20800m -631.6289m 
    9.21200m -629.5603m 
    9.21600m -627.4756m 
    9.22000m -625.3908m 
    9.22400m -623.3061m 
    9.22800m -621.2214m 
    9.23200m -619.1367m 
    9.23600m -617.0519m 
    9.24000m -614.9672m 
    9.24400m -612.8825m 
    9.24800m -610.7978m 
    9.25200m -608.7130m 
    9.25600m -606.6283m 
    9.26000m -604.5436m 
    9.26400m -602.4589m 
    9.26800m -600.3741m 
    9.27200m -598.2894m 
    9.27600m -596.2047m 
    9.28000m -594.1199m 
    9.28400m -592.0352m 
    9.28800m -589.9505m 
    9.29200m -587.8658m 
    9.29600m -585.7810m 
    9.30000m -583.6963m 
    9.30400m -581.6116m 
    9.30800m -579.5269m 
    9.31200m -577.4421m 
    9.31600m -575.3574m 
    9.32000m -573.2513m 
    9.32400m -571.0732m 
    9.32800m -568.8950m 
    9.33200m -566.7168m 
    9.33600m -564.5387m 
    9.34000m -562.3605m 
    9.34400m -560.1824m 
    9.34800m -558.0042m 
    9.35200m -555.8260m 
    9.35600m -553.6479m 
    9.36000m -551.4697m 
    9.36400m -549.2915m 
    9.36800m -547.1134m 
    9.37200m -544.9352m 
    9.37600m -542.7570m 
    9.38000m -540.5789m 
    9.38400m -538.4007m 
    9.38800m -536.2226m 
    9.39200m -534.0444m 
    9.39600m -531.8662m 
    9.40000m -529.6881m 
    9.40400m -527.5099m 
    9.40800m -525.3213m 
    9.41200m -523.0048m 
    9.41600m -520.6882m 
    9.42000m -518.3717m 
    9.42400m -516.0551m 
    9.42800m -513.7386m 
    9.43200m -511.4221m 
    9.43600m -509.1055m 
    9.44000m -506.7890m 
    9.44400m -504.4725m 
    9.44800m -502.1559m 
    9.45200m -499.8394m 
    9.45600m -497.5228m 
    9.46000m -495.2063m 
    9.46400m -492.8898m 
    9.46800m -490.5732m 
    9.47200m -488.2567m 
    9.47600m -485.9402m 
    9.48000m -483.6236m 
    9.48400m -481.3071m 
    9.48800m -478.9905m 
    9.49200m -476.6740m 
    9.49600m -474.3575m 
    9.50000m -472.0409m 
    9.50400m -469.7244m 
    9.50800m -467.4079m 
    9.51200m -465.0913m 
    9.51600m -462.7748m 
    9.52000m -460.4583m 
    9.52400m -458.1417m 
    9.52800m -455.8252m 
    9.53200m -453.5086m 
    9.53600m -451.1921m 
    9.54000m -448.8756m 
    9.54400m -446.5590m 
    9.54800m -444.2425m 
    9.55200m -441.9260m 
    9.55600m -439.6094m 
    9.56000m -437.2929m 
    9.56400m -434.9763m 
    9.56800m -432.6598m 
    9.57200m -430.3433m 
    9.57600m -428.0267m 
    9.58000m -425.7102m 
    9.58400m -423.3937m 
    9.58800m -421.0771m 
    9.59200m -418.7606m 
    9.59600m -416.4440m 
    9.60000m -414.1275m 
    9.60400m -411.8110m 
    9.60800m -409.4944m 
    9.61200m -407.1779m 
    9.61600m -404.8614m 
    9.62000m -402.5448m 
    9.62400m -400.2283m 
    9.62800m -397.9118m 
    9.63200m -395.5952m 
    9.63600m -393.2787m 
    9.64000m -390.9621m 
    9.64400m -388.6456m 
    9.64800m -386.3291m 
    9.65200m -384.0125m 
    9.65600m -381.6960m 
    9.66000m -379.3795m 
    9.66400m -377.0629m 
    9.66800m -374.7464m 
    9.67200m -372.4298m 
    9.67600m -370.1133m 
    9.68000m -367.7968m 
    9.68400m -365.4802m 
    9.68800m -363.1637m 
    9.69200m -360.8251m 
    9.69600m -358.3898m 
    9.70000m -355.9545m 
    9.70400m -353.5192m 
    9.70800m -351.0839m 
    9.71200m -348.6486m 
    9.71600m -346.2133m 
    9.72000m -343.7781m 
    9.72400m -341.3428m 
    9.72800m -338.9075m 
    9.73200m -336.4722m 
    9.73600m -334.0369m 
    9.74000m -331.6016m 
    9.74400m -329.1663m 
    9.74800m -326.7310m 
    9.75200m -324.2957m 
    9.75600m -321.8605m 
    9.76000m -319.4252m 
    9.76400m -316.9899m 
    9.76800m -314.5546m 
    9.77200m -312.0614m 
    9.77600m -309.5610m 
    9.78000m -307.0606m 
    9.78400m -304.5602m 
    9.78800m -302.0598m 
    9.79200m -299.5594m 
    9.79600m -297.0590m 
    9.80000m -294.5586m 
    9.80400m -292.0582m 
    9.80800m -289.5578m 
    9.81200m -287.0574m 
    9.81600m -284.5570m 
    9.82000m -282.0567m 
    9.82400m -279.5563m 
    9.82800m -277.0559m 
    9.83200m -274.5555m 
    9.83600m -272.0551m 
    9.84000m -269.5547m 
    9.84400m -267.0543m 
    9.84800m -264.5539m 
    9.85200m -262.0535m 
    9.85600m -259.5531m 
    9.86000m -257.0527m 
    9.86400m -254.5523m 
    9.86800m -252.0519m 
    9.87200m -249.5515m 
    9.87600m -247.0511m 
    9.88000m -244.5507m 
    9.88400m -242.0503m 
    9.88800m -239.5499m 
    9.89200m -237.0495m 
    9.89600m -234.5491m 
    9.90000m -232.0487m 
    9.90400m -229.5484m 
    9.90800m -227.0480m 
    9.91200m -224.5476m 
    9.91600m -222.0472m 
    9.92000m -219.5468m 
    9.92400m -217.0464m 
    9.92800m -214.5460m 
    9.93200m -212.0456m 
    9.93600m -209.5452m 
    9.94000m -207.0448m 
    9.94400m -204.5444m 
    9.94800m -202.0440m 
    9.95200m -199.5436m 
    9.95600m -197.0432m 
    9.96000m -194.5428m 
    9.96400m -192.0424m 
    9.96800m -189.5420m 
    9.97200m -187.0416m 
    9.97600m -184.5412m 
    9.98000m -182.0408m 
    9.98400m -179.5405m 
    9.98800m -177.0401m 
    9.99200m -174.5397m 
    9.99600m -172.0393m 
   10.00000m -169.5389m 
   10.00400m -166.9746m 
   10.00800m -164.4103m 
   10.01200m -161.8460m 
   10.01600m -159.2817m 
   10.02000m -156.7175m 
   10.02400m -154.1532m 
   10.02800m -151.5889m 
   10.03200m -149.0246m 
   10.03600m -146.4603m 
   10.04000m -143.8961m 
   10.04400m -141.3318m 
   10.04800m -138.7675m 
   10.05200m -136.2032m 
   10.05600m -133.6389m 
   10.06000m -131.0747m 
   10.06400m -128.5104m 
   10.06800m -125.9461m 
   10.07200m -123.3818m 
   10.07600m -120.8175m 
   10.08000m -118.2533m 
   10.08400m -115.6890m 
   10.08800m -113.1247m 
   10.09200m -110.5604m 
   10.09600m -107.9961m 
   10.10000m -105.4318m 
   10.10400m -102.8676m 
   10.10800m -100.3033m 
   10.11200m  -97.7390m 
   10.11600m  -95.1747m 
   10.12000m  -92.6104m 
   10.12400m  -90.0462m 
   10.12800m  -87.4819m 
   10.13200m  -84.9176m 
   10.13600m  -82.3533m 
   10.14000m  -79.7890m 
   10.14400m  -77.2248m 
   10.14800m  -74.6605m 
   10.15200m  -72.0962m 
   10.15600m  -69.5319m 
   10.16000m  -66.9676m 
   10.16400m  -64.4034m 
   10.16800m  -61.8391m 
   10.17200m  -59.2748m 
   10.17600m  -56.7105m 
   10.18000m  -54.1462m 
   10.18400m  -51.5809m 
   10.18800m  -49.0144m 
   10.19200m  -46.4479m 
   10.19600m  -43.8814m 
   10.20000m  -41.3148m 
   10.20400m  -38.7483m 
   10.20800m  -36.1818m 
   10.21200m  -33.6153m 
   10.21600m  -31.0488m 
   10.22000m  -28.4822m 
   10.22400m  -25.9157m 
   10.22800m  -23.3492m 
   10.23200m  -20.7827m 
   10.23600m  -18.2161m 
   10.24000m  -15.6496m 
   10.24400m  -13.0831m 
   10.24800m  -10.5166m 
   10.25200m   -7.9501m 
   10.25600m   -5.3835m 
   10.26000m   -2.8170m 
   10.26400m -250.4905u 
   10.26800m    2.3160m 
   10.27200m    4.8826m 
   10.27600m    7.4491m 
   10.28000m   10.0156m 
   10.28400m   12.5821m 
   10.28800m   15.1486m 
   10.29200m   17.7152m 
   10.29600m   20.2817m 
   10.30000m   22.8482m 
   10.30400m   25.4147m 
   10.30800m   27.9813m 
   10.31200m   30.5478m 
   10.31600m   33.1143m 
   10.32000m   35.6808m 
   10.32400m   38.2473m 
   10.32800m   40.8128m 
   10.33200m   43.3770m 
   10.33600m   45.9412m 
   10.34000m   48.5054m 
   10.34400m   51.0697m 
   10.34800m   53.6339m 
   10.35200m   56.1981m 
   10.35600m   58.7623m 
   10.36000m   61.3266m 
   10.36400m   63.8908m 
   10.36800m   66.4550m 
   10.37200m   69.0193m 
   10.37600m   71.5835m 
   10.38000m   74.1477m 
   10.38400m   76.7119m 
   10.38800m   79.2762m 
   10.39200m   81.8404m 
   10.39600m   84.4046m 
   10.40000m   86.9688m 
   10.40400m   89.5331m 
   10.40800m   92.0973m 
   10.41200m   94.6615m 
   10.41600m   97.2257m 
   10.42000m   99.7900m 
   10.42400m  102.3542m 
   10.42800m  104.9184m 
   10.43200m  107.4776m 
   10.43600m  110.0300m 
   10.44000m  112.5824m 
   10.44400m  115.1348m 
   10.44800m  117.6873m 
   10.45200m  120.2397m 
   10.45600m  122.7921m 
   10.46000m  125.3445m 
   10.46400m  127.8969m 
   10.46800m  130.4493m 
   10.47200m  133.0017m 
   10.47600m  135.5541m 
   10.48000m  138.1065m 
   10.48400m  140.6590m 
   10.48800m  143.2114m 
   10.49200m  145.7638m 
   10.49600m  148.3162m 
   10.50000m  150.8686m 
   10.50400m  153.4210m 
   10.50800m  155.9734m 
   10.51200m  158.5258m 
   10.51600m  161.0455m 
   10.52000m  163.5419m 
   10.52400m  166.0383m 
   10.52800m  168.5347m 
   10.53200m  171.0311m 
   10.53600m  173.5274m 
   10.54000m  176.0238m 
   10.54400m  178.5202m 
   10.54800m  181.0166m 
   10.55200m  183.5130m 
   10.55600m  186.0093m 
   10.56000m  188.5057m 
   10.56400m  191.0021m 
   10.56800m  193.4985m 
   10.57200m  195.9949m 
   10.57600m  198.4912m 
   10.58000m  200.9876m 
   10.58400m  203.4840m 
   10.58800m  205.9804m 
   10.59200m  208.4768m 
   10.59600m  210.9732m 
   10.60000m  213.4695m 
   10.60400m  215.9659m 
   10.60800m  218.4623m 
   10.61200m  220.9587m 
   10.61600m  223.4551m 
   10.62000m  225.9514m 
   10.62400m  228.4478m 
   10.62800m  230.9442m 
   10.63200m  233.4406m 
   10.63600m  235.9370m 
   10.64000m  238.4333m 
   10.64400m  240.9297m 
   10.64800m  243.4261m 
   10.65200m  245.9225m 
   10.65600m  248.4189m 
   10.66000m  250.9152m 
   10.66400m  253.4116m 
   10.66800m  255.9080m 
   10.67200m  258.4044m 
   10.67600m  260.9008m 
   10.68000m  263.3972m 
   10.68400m  265.8935m 
   10.68800m  268.3899m 
   10.69200m  270.8863m 
   10.69600m  273.3827m 
   10.70000m  275.8791m 
   10.70400m  278.3754m 
   10.70800m  280.8718m 
   10.71200m  283.3682m 
   10.71600m  285.8646m 
   10.72000m  288.3610m 
   10.72400m  290.8573m 
   10.72800m  293.3537m 
   10.73200m  295.8501m 
   10.73600m  298.3465m 
   10.74000m  300.8429m 
   10.74400m  303.3393m 
   10.74800m  305.8356m 
   10.75200m  308.3320m 
   10.75600m  310.8284m 
   10.76000m  313.3248m 
   10.76400m  315.8212m 
   10.76800m  318.3175m 
   10.77200m  320.8139m 
   10.77600m  323.3103m 
   10.78000m  325.8067m 
   10.78400m  328.2372m 
   10.78800m  330.6595m 
   10.79200m  333.0817m 
   10.79600m  335.5039m 
   10.80000m  337.9261m 
   10.80400m  340.3483m 
   10.80800m  342.7706m 
   10.81200m  345.1928m 
   10.81600m  347.6150m 
   10.82000m  350.0372m 
   10.82400m  352.4594m 
   10.82800m  354.8816m 
   10.83200m  357.3039m 
   10.83600m  359.7261m 
   10.84000m  362.1483m 
   10.84400m  364.5705m 
   10.84800m  366.9927m 
   10.85200m  369.4150m 
   10.85600m  371.8372m 
   10.86000m  374.2594m 
   10.86400m  376.6816m 
   10.86800m  379.1038m 
   10.87200m  381.4848m 
   10.87600m  383.7760m 
   10.88000m  386.0672m 
   10.88400m  388.3584m 
   10.88800m  390.6496m 
   10.89200m  392.9408m 
   10.89600m  395.2320m 
   10.90000m  397.5231m 
   10.90400m  399.8143m 
   10.90800m  402.1055m 
   10.91200m  404.3967m 
   10.91600m  406.6879m 
   10.92000m  408.9791m 
   10.92400m  411.2703m 
   10.92800m  413.5615m 
   10.93200m  415.8527m 
   10.93600m  418.1439m 
   10.94000m  420.4351m 
   10.94400m  422.7263m 
   10.94800m  425.0175m 
   10.95200m  427.3087m 
   10.95600m  429.5999m 
   10.96000m  431.8911m 
   10.96400m  434.1823m 
   10.96800m  436.4735m 
   10.97200m  438.7646m 
   10.97600m  441.0558m 
   10.98000m  443.3470m 
   10.98400m  445.6382m 
   10.98800m  447.9294m 
   10.99200m  450.2206m 
   10.99600m  452.5118m 
   11.00000m  454.8030m 
   11.00400m  457.0942m 
   11.00800m  459.3854m 
   11.01200m  461.6766m 
   11.01600m  463.9678m 
   11.02000m  466.2590m 
   11.02400m  468.5502m 
   11.02800m  470.8414m 
   11.03200m  473.1326m 
   11.03600m  475.4238m 
   11.04000m  477.7149m 
   11.04400m  480.0061m 
   11.04800m  482.2973m 
   11.05200m  484.5885m 
   11.05600m  486.8797m 
   11.06000m  489.1709m 
   11.06400m  491.4621m 
   11.06800m  493.7533m 
   11.07200m  496.0445m 
   11.07600m  498.3357m 
   11.08000m  500.6269m 
   11.08400m  502.9181m 
   11.08800m  505.2093m 
   11.09200m  507.5005m 
   11.09600m  509.7917m 
   11.10000m  512.0829m 
   11.10400m  514.3741m 
   11.10800m  516.6652m 
   11.11200m  518.9564m 
   11.11600m  521.2476m 
   11.12000m  523.5388m 
   11.12400m  525.8300m 
   11.12800m  528.1212m 
   11.13200m  530.4124m 
   11.13600m  532.7036m 
   11.14000m  534.9948m 
   11.14400m  537.2860m 
   11.14800m  539.5772m 
   11.15200m  541.8684m 
   11.15600m  544.1596m 
   11.16000m  546.4389m 
   11.16400m  548.5866m 
   11.16800m  550.7343m 
   11.17200m  552.8820m 
   11.17600m  555.0297m 
   11.18000m  557.1774m 
   11.18400m  559.3251m 
   11.18800m  561.4728m 
   11.19200m  563.6205m 
   11.19600m  565.7682m 
   11.20000m  567.9159m 
   11.20400m  570.0636m 
   11.20800m  572.2113m 
   11.21200m  574.3590m 
   11.21600m  576.5067m 
   11.22000m  578.6544m 
   11.22400m  580.8021m 
   11.22800m  582.9498m 
   11.23200m  585.0975m 
   11.23600m  587.2452m 
   11.24000m  589.3929m 
   11.24400m  591.5406m 
   11.24800m  593.5495m 
   11.25200m  595.5262m 
   11.25600m  597.5029m 
   11.26000m  599.4796m 
   11.26400m  601.4562m 
   11.26800m  603.4329m 
   11.27200m  605.4096m 
   11.27600m  607.3863m 
   11.28000m  609.3630m 
   11.28400m  611.3397m 
   11.28800m  613.3164m 
   11.29200m  615.2931m 
   11.29600m  617.2698m 
   11.30000m  619.2464m 
   11.30400m  621.2231m 
   11.30800m  623.1998m 
   11.31200m  625.1765m 
   11.31600m  627.1532m 
   11.32000m  629.1299m 
   11.32400m  631.1066m 
   11.32800m  633.0833m 
   11.33200m  635.0599m 
   11.33600m  637.0366m 
   11.34000m  639.0133m 
   11.34400m  640.9900m 
   11.34800m  642.9667m 
   11.35200m  644.9434m 
   11.35600m  646.9201m 
   11.36000m  648.8968m 
   11.36400m  650.8734m 
   11.36800m  652.8501m 
   11.37200m  654.8268m 
   11.37600m  656.8035m 
   11.38000m  658.7802m 
   11.38400m  660.7569m 
   11.38800m  662.7336m 
   11.39200m  664.7103m 
   11.39600m  666.6870m 
   11.40000m  668.6636m 
   11.40400m  670.6403m 
   11.40800m  672.6170m 
   11.41200m  674.5937m 
   11.41600m  676.5704m 
   11.42000m  678.5471m 
   11.42400m  680.5238m 
   11.42800m  682.5005m 
   11.43200m  684.4771m 
   11.43600m  686.4538m 
   11.44000m  688.4305m 
   11.44400m  690.4072m 
   11.44800m  692.3839m 
   11.45200m  694.3606m 
   11.45600m  696.3373m 
   11.46000m  698.3140m 
   11.46400m  700.2907m 
   11.46800m  702.2673m 
   11.47200m  704.2440m 
   11.47600m  706.2207m 
   11.48000m  708.1974m 
   11.48400m  710.1741m 
   11.48800m  712.1508m 
   11.49200m  714.1275m 
   11.49600m  716.1042m 
   11.50000m  718.0808m 
   11.50400m  719.6995m 
   11.50800m  721.3182m 
   11.51200m  722.9368m 
   11.51600m  724.5555m 
   11.52000m  726.1741m 
   11.52400m  727.7928m 
   11.52800m  729.4115m 
   11.53200m  731.0301m 
   11.53600m  732.6488m 
   11.54000m  734.2674m 
   11.54400m  735.8861m 
   11.54800m  737.5048m 
   11.55200m  739.1234m 
   11.55600m  740.7421m 
   11.56000m  742.3607m 
   11.56400m  743.9794m 
   11.56800m  745.5981m 
   11.57200m  747.2167m 
   11.57600m  748.8354m 
   11.58000m  750.4540m 
   11.58400m  752.0727m 
   11.58800m  753.6913m 
   11.59200m  755.3100m 
   11.59600m  756.9287m 
   11.60000m  758.5473m 
   11.60400m  760.1660m 
   11.60800m  761.7846m 
   11.61200m  763.4033m 
   11.61600m  765.0220m 
   11.62000m  766.6406m 
   11.62400m  768.2593m 
   11.62800m  769.8779m 
   11.63200m  771.4966m 
   11.63600m  773.1153m 
   11.64000m  774.7339m 
   11.64400m  776.3526m 
   11.64800m  777.9712m 
   11.65200m  779.5899m 
   11.65600m  781.2085m 
   11.66000m  782.8272m 
   11.66400m  784.4459m 
   11.66800m  786.0645m 
   11.67200m  787.6832m 
   11.67600m  789.3018m 
   11.68000m  790.9205m 
   11.68400m  792.5392m 
   11.68800m  794.1578m 
   11.69200m  795.7765m 
   11.69600m  797.3820m 
   11.70000m  798.9652m 
   11.70400m  800.5485m 
   11.70800m  802.1317m 
   11.71200m  803.7149m 
   11.71600m  805.2982m 
   11.72000m  806.8814m 
   11.72400m  808.4646m 
   11.72800m  810.0479m 
   11.73200m  811.6311m 
   11.73600m  813.2144m 
   11.74000m  814.7976m 
   11.74400m  816.3808m 
   11.74800m  817.9641m 
   11.75200m  819.5473m 
   11.75600m  821.1285m 
   11.76000m  822.5577m 
   11.76400m  823.9869m 
   11.76800m  825.4160m 
   11.77200m  826.8452m 
   11.77600m  828.2744m 
   11.78000m  829.7036m 
   11.78400m  831.1328m 
   11.78800m  832.5619m 
   11.79200m  833.9911m 
   11.79600m  835.4203m 
   11.80000m  836.8495m 
   11.80400m  838.2787m 
   11.80800m  839.7079m 
   11.81200m  841.1370m 
   11.81600m  842.5662m 
   11.82000m  843.9954m 
   11.82400m  845.4246m 
   11.82800m  846.8538m 
   11.83200m  848.2829m 
   11.83600m  849.7121m 
   11.84000m  851.1413m 
   11.84400m  852.5705m 
   11.84800m  853.9997m 
   11.85200m  855.4289m 
   11.85600m  856.8580m 
   11.86000m  858.2872m 
   11.86400m  859.7164m 
   11.86800m  861.1456m 
   11.87200m  862.5748m 
   11.87600m  864.0040m 
   11.88000m  865.4331m 
   11.88400m  866.8623m 
   11.88800m  868.2915m 
   11.89200m  869.7207m 
   11.89600m  871.1499m 
   11.90000m  872.5790m 
   11.90400m  874.0082m 
   11.90800m  875.4374m 
   11.91200m  876.8666m 
   11.91600m  878.2958m 
   11.92000m  879.7250m 
   11.92400m  881.1541m 
   11.92800m  882.5833m 
   11.93200m  884.0125m 
   11.93600m  885.4417m 
   11.94000m  886.8709m 
   11.94400m  888.3000m 
   11.94800m  889.7292m 
   11.95200m  891.1584m 
   11.95600m  892.3508m 
   11.96000m  893.5071m 
   11.96400m  894.6634m 
   11.96800m  895.8196m 
   11.97200m  896.9759m 
   11.97600m  898.1322m 
   11.98000m  899.2885m 
   11.98400m  900.4447m 
   11.98800m  901.6010m 
   11.99200m  902.7573m 
   11.99600m  903.9135m 
   12.00000m  905.0698m 
   12.00400m  906.2261m 
   12.00800m  907.3824m 
   12.01200m  908.5386m 
   12.01600m  909.6949m 
   12.02000m  910.8512m 
   12.02400m  912.0075m 
   12.02800m  913.1637m 
   12.03200m  914.3200m 
   12.03600m  915.4763m 
   12.04000m  916.6325m 
   12.04400m  917.7888m 
   12.04800m  918.9451m 
   12.05200m  920.1014m 
   12.05600m  921.2576m 
   12.06000m  922.4139m 
   12.06400m  923.5702m 
   12.06800m  924.7265m 
   12.07200m  925.8827m 
   12.07600m  927.0390m 
   12.08000m  928.1953m 
   12.08400m  929.3516m 
   12.08800m  930.5078m 
   12.09200m  931.6641m 
   12.09600m  932.8204m 
   12.10000m  933.9766m 
   12.10400m  935.1329m 
   12.10800m  936.2892m 
   12.11200m  937.4455m 
   12.11600m  938.6017m 
   12.12000m  939.7580m 
   12.12400m  940.9143m 
   12.12800m  942.0706m 
   12.13200m  943.2268m 
   12.13600m  944.3831m 
   12.14000m  945.5394m 
   12.14400m  946.6956m 
   12.14800m  947.8519m 
   12.15200m  949.0082m 
   12.15600m  950.1645m 
   12.16000m  951.3207m 
   12.16400m  952.4570m 
   12.16800m  953.3862m 
   12.17200m  954.3155m 
   12.17600m  955.2447m 
   12.18000m  956.1740m 
   12.18400m  957.1032m 
   12.18800m  958.0325m 
   12.19200m  958.9617m 
   12.19600m  959.8910m 
   12.20000m  960.8202m 
   12.20400m  961.7495m 
   12.20800m  962.6787m 
   12.21200m  963.6080m 
   12.21600m  964.5372m 
   12.22000m  965.4665m 
   12.22400m  966.3957m 
   12.22800m  967.3250m 
   12.23200m  968.2542m 
   12.23600m  969.1835m 
   12.24000m  970.1127m 
   12.24400m  971.0420m 
   12.24800m  971.9519m 
   12.25200m  972.5899m 
   12.25600m  973.2279m 
   12.26000m  973.8659m 
   12.26400m  974.5039m 
   12.26800m  975.1419m 
   12.27200m  975.7798m 
   12.27600m  976.4178m 
   12.28000m  977.0558m 
   12.28400m  977.6938m 
   12.28800m  978.3318m 
   12.29200m  978.9698m 
   12.29600m  979.6078m 
   12.30000m  980.2458m 
   12.30400m  980.8837m 
   12.30800m  981.5217m 
   12.31200m  982.1597m 
   12.31600m  982.7977m 
   12.32000m  983.4357m 
   12.32400m  984.0737m 
   12.32800m  984.7117m 
   12.33200m  985.3496m 
   12.33600m  985.9876m 
   12.34000m  986.6256m 
   12.34400m  987.2636m 
   12.34800m  987.9016m 
   12.35200m  988.5396m 
   12.35600m  989.1776m 
   12.36000m  989.8156m 
   12.36400m  990.4535m 
   12.36800m  991.0915m 
   12.37200m  991.7295m 
   12.37600m  992.3675m 
   12.38000m  993.0055m 
   12.38400m  993.6435m 
   12.38800m  994.2815m 
   12.39200m  994.9194m 
   12.39600m  995.5574m 
   12.40000m  996.1954m 
[...]
   17.07200m -925.9537m 
   17.07600m -927.1070m 
   17.08000m -928.2604m 
   17.08400m -929.4138m 
   17.08800m -930.5671m 
   17.09200m -931.7205m 
   17.09600m -932.8739m 
   17.10000m -934.0272m 
   17.10400m -935.1806m 
   17.10800m -936.3340m 
   17.11200m -937.4874m 
   17.11600m -938.6407m 
   17.12000m -939.7941m 
   17.12400m -940.9475m 
   17.12800m -942.1008m 
   17.13200m -943.2542m 
   17.13600m -944.4076m 
   17.14000m -945.5609m 
   17.14400m -946.7143m 
   17.14800m -947.8677m 
   17.15200m -949.0210m 
   17.15600m -950.1744m 
   17.16000m -951.3278m 
   17.16400m -952.4812m 
   17.16800m -953.4291m 
   17.17200m -954.3553m 
   17.17600m -955.2816m 
   17.18000m -956.2078m 
   17.18400m -957.1341m 
   17.18800m -958.0604m 
   17.19200m -958.9866m 
   17.19600m -959.9129m 
   17.20000m -960.8391m 
   17.20400m -961.7654m 
   17.20800m -962.6916m 
   17.21200m -963.6179m 
   17.21600m -964.5441m 
   17.22000m -965.4704m 
   17.22400m -966.3967m 
   17.22800m -967.3229m 
   17.23200m -968.2492m 
   17.23600m -969.1754m 
   17.24000m -970.1017m 
   17.24400m -971.0279m 
   17.24800m -971.9542m 
   17.25200m -972.6117m 
   17.25600m -973.2485m 
   17.26000m -973.8853m 
   17.26400m -974.5221m 
   17.26800m -975.1589m 
   17.27200m -975.7957m 
   17.27600m -976.4325m 
   17.28000m -977.0693m 
   17.28400m -977.7061m 
   17.28800m -978.3429m 
   17.29200m -978.9798m 
   17.29600m -979.6166m 
   17.30000m -980.2534m 
   17.30400m -980.8902m 
   17.30800m -981.5270m 
   17.31200m -982.1638m 
   17.31600m -982.8006m 
   17.32000m -983.4374m 
   17.32400m -984.0742m 
   17.32800m -984.7110m 
   17.33200m -985.3478m 
   17.33600m -985.9846m 
   17.34000m -986.6214m 
   17.34400m -987.2582m 
   17.34800m -987.8950m 
   17.35200m -988.5318m 
   17.35600m -989.1686m 
   17.36000m -989.8054m 
   17.36400m -990.4422m 
   17.36800m -991.0791m 
   17.37200m -991.7159m 
   17.37600m -992.3527m 
   17.38000m -992.9895m 
   17.38400m -993.6263m 
   17.38800m -994.2631m 
   17.39200m -994.8999m 
   17.39600m -995.5367m 
   17.40000m -996.1735m 
   17.40400m -996.8103m 
   17.40800m -997.4471m 
   17.41200m -998.0839m 
   17.41600m -998.7207m 
   17.42000m -999.3575m 
   17.42400m -999.9943m 
   17.42800m   -1.0006  
   17.43200m   -1.0013  
   17.43600m   -1.0019  
   17.44000m   -1.0025  
   17.44400m   -1.0032  
   17.44800m   -1.0038  
   17.45200m   -1.0045  
   17.45600m   -1.0051  
   17.46000m   -1.0057  
   17.46400m   -1.0064  
   17.46800m   -1.0070  
   17.47200m   -1.0076  
   17.47600m   -1.0083  
   17.48000m   -1.0089  
   17.48400m   -1.0095  
   17.48800m   -1.0102  
   17.49200m   -1.0108  
   17.49600m   -1.0115  
   17.50000m   -1.0121  
   17.50400m   -1.0122  
   17.50800m   -1.0123  
   17.51200m   -1.0125  
   17.51600m   -1.0126  
   17.52000m   -1.0127  
   17.52400m   -1.0128  
   17.52800m   -1.0129  
   17.53200m   -1.0131  
   17.53600m   -1.0132  
   17.54000m   -1.0133  
   17.54400m   -1.0134  
   17.54800m   -1.0136  
   17.55200m   -1.0137  
   17.55600m   -1.0138  
   17.56000m   -1.0139  
   17.56400m   -1.0141  
   17.56800m   -1.0142  
   17.57200m   -1.0143  
   17.57600m   -1.0144  
   17.58000m   -1.0145  
   17.58400m   -1.0147  
   17.58800m   -1.0148  
   17.59200m   -1.0149  
   17.59600m   -1.0150  
   17.60000m   -1.0152  
   17.60400m   -1.0153  
   17.60800m   -1.0154  
   17.61200m   -1.0155  
   17.61600m   -1.0156  
   17.62000m   -1.0158  
   17.62400m   -1.0159  
   17.62800m   -1.0160  
   17.63200m   -1.0161  
   17.63600m   -1.0163  
   17.64000m   -1.0164  
   17.64400m   -1.0165  
   17.64800m   -1.0166  
   17.65200m   -1.0167  
   17.65600m   -1.0169  
   17.66000m   -1.0170  
   17.66400m   -1.0171  
   17.66800m   -1.0172  
   17.67200m   -1.0174  
   17.67600m   -1.0175  
   17.68000m   -1.0176  
   17.68400m   -1.0177  
   17.68800m   -1.0178  
   17.69200m   -1.0180  
   17.69600m   -1.0181  
   17.70000m   -1.0182  
   17.70400m   -1.0183  
   17.70800m   -1.0184  
   17.71200m   -1.0185  
   17.71600m   -1.0186  
   17.72000m   -1.0187  
   17.72400m   -1.0187  
   17.72800m   -1.0188  
   17.73200m   -1.0189  
   17.73600m   -1.0190  
   17.74000m   -1.0191  
   17.74400m   -1.0192  
   17.74800m   -1.0193  
   17.75200m   -1.0193  
   17.75600m   -1.0193  
   17.76000m   -1.0192  
   17.76400m   -1.0192  
   17.76800m   -1.0191  
   17.77200m   -1.0190  
   17.77600m   -1.0190  
   17.78000m   -1.0189  
   17.78400m   -1.0188  
   17.78800m   -1.0188  
   17.79200m   -1.0187  
   17.79600m   -1.0186  
   17.80000m   -1.0186  
   17.80400m   -1.0185  
   17.80800m   -1.0184  
   17.81200m   -1.0184  
   17.81600m   -1.0183  
   17.82000m   -1.0182  
   17.82400m   -1.0182  
   17.82800m   -1.0181  
   17.83200m   -1.0180  
   17.83600m   -1.0180  
   17.84000m   -1.0179  
   17.84400m   -1.0178  
   17.84800m   -1.0178  
   17.85200m   -1.0177  
   17.85600m   -1.0176  
   17.86000m   -1.0176  
   17.86400m   -1.0175  
   17.86800m   -1.0174  
   17.87200m   -1.0174  
   17.87600m   -1.0173  
   17.88000m   -1.0172  
   17.88400m   -1.0172  
   17.88800m   -1.0171  
   17.89200m   -1.0170  
   17.89600m   -1.0170  
   17.90000m   -1.0169  
   17.90400m   -1.0168  
   17.90800m   -1.0168  
   17.91200m   -1.0167  
   17.91600m   -1.0165  
   17.92000m   -1.0162  
   17.92400m   -1.0158  
   17.92800m   -1.0155  
   17.93200m   -1.0152  
   17.93600m   -1.0148  
   17.94000m   -1.0145  
   17.94400m   -1.0141  
   17.94800m   -1.0138  
   17.95200m   -1.0134  
   17.95600m   -1.0131  
   17.96000m   -1.0127  
   17.96400m   -1.0124  
   17.96800m   -1.0120  
   17.97200m   -1.0117  
   17.97600m   -1.0113  
   17.98000m   -1.0110  
   17.98400m   -1.0107  
   17.98800m   -1.0103  
   17.99200m   -1.0100  
   17.99600m   -1.0096  
   18.00000m   -1.0093  
   18.00400m   -1.0089  
   18.00800m   -1.0086  
   18.01200m   -1.0082  
   18.01600m   -1.0079  
   18.02000m   -1.0075  
   18.02400m   -1.0072  
   18.02800m   -1.0069  
   18.03200m   -1.0065  
   18.03600m   -1.0062  
   18.04000m   -1.0058  
   18.04400m   -1.0055  
   18.04800m   -1.0051  
   18.05200m   -1.0048  
   18.05600m   -1.0044  
   18.06000m   -1.0041  
   18.06400m   -1.0037  
   18.06800m   -1.0034  
   18.07200m   -1.0031  
   18.07600m   -1.0027  
   18.08000m   -1.0024  
   18.08400m   -1.0020  
   18.08800m   -1.0017  
   18.09200m   -1.0013  
   18.09600m   -1.0010  
   18.10000m   -1.0006  
   18.10400m   -1.0003  
   18.10800m -999.9491m 
   18.11200m -999.6037m 
   18.11600m -999.2582m 
   18.12000m -998.8314m 
   18.12400m -998.2382m 
   18.12800m -997.6449m 
   18.13200m -997.0517m 
   18.13600m -996.4584m 
   18.14000m -995.8652m 
   18.14400m -995.2719m 
   18.14800m -994.6787m 
   18.15200m -994.0855m 
   18.15600m -993.4922m 
   18.16000m -992.8990m 
   18.16400m -992.3057m 
   18.16800m -991.7125m 
   18.17200m -991.1192m 
   18.17600m -990.5260m 
   18.18000m -989.9327m 
   18.18400m -989.3395m 
   18.18800m -988.7462m 
   18.19200m -988.1530m 
   18.19600m -987.5597m 
   18.20000m -986.9665m 
   18.20400m -986.3732m 
   18.20800m -985.7800m 
   18.21200m -985.1867m 
   18.21600m -984.4315m 
   18.22000m -983.5116m 
   18.22400m -982.5918m 
   18.22800m -981.6719m 
   18.23200m -980.7520m 
   18.23600m -979.8322m 
   18.24000m -978.9123m 
   18.24400m -977.9925m 
   18.24800m -977.0726m 
   18.25200m -976.1527m 
   18.25600m -975.2329m 
   18.26000m -974.3130m 
   18.26400m -973.3932m 
   18.26800m -972.4733m 
   18.27200m -971.5534m 
   18.27600m -970.6336m 
   18.28000m -969.7137m 
   18.28400m -968.7939m 
   18.28800m -967.8740m 
   18.29200m -966.9541m 
   18.29600m -966.0343m 
   18.30000m -965.1144m 
   18.30400m -964.1946m 
   18.30800m -963.2747m 
   18.31200m -962.3548m 
   18.31600m -961.4350m 
   18.32000m -960.5151m 
   18.32400m -959.5953m 
   18.32800m -958.6754m 
   18.33200m -957.7555m 
   18.33600m -956.8357m 
   18.34000m -955.9158m 
   18.34400m -954.9960m 
   18.34800m -954.0761m 
   18.35200m -953.1562m 
   18.35600m -952.2364m 
   18.36000m -951.3165m 
   18.36400m -950.3967m 
   18.36800m -949.4768m 
   18.37200m -948.5569m 
   18.37600m -947.6371m 
   18.38000m -946.7172m 
   18.38400m -945.7974m 
   18.38800m -944.8775m 
   18.39200m -943.9576m 
   18.39600m -943.0378m 
   18.40000m -942.1179m 
   18.40400m -941.1981m 
   18.40800m -940.2782m 
   18.41200m -939.3583m 
   18.41600m -938.4385m 
   18.42000m -937.5186m 
   18.42400m -936.5988m 
   18.42800m -935.6789m 
   18.43200m -934.7590m 
   18.43600m -933.8392m 
   18.44000m -932.9193m 
   18.44400m -931.9995m 
   18.44800m -931.0796m 
   18.45200m -930.1597m 
   18.45600m -929.2399m 
   18.46000m -928.3200m 
   18.46400m -927.4002m 
   18.46800m -926.4803m 
   18.47200m -925.5604m 
   18.47600m -924.6406m 
   18.48000m -923.7207m 
   18.48400m -922.8009m 
   18.48800m -921.8810m 
   18.49200m -920.9611m 
   18.49600m -920.0413m 
   18.50000m -919.1214m 
   18.50400m -917.7439m 
   18.50800m -916.3664m 
   18.51200m -914.9889m 
   18.51600m -913.6113m 
   18.52000m -912.2338m 
   18.52400m -910.8563m 
   18.52800m -909.4788m 
   18.53200m -908.1013m 
   18.53600m -906.7237m 
   18.54000m -905.3462m 
   18.54400m -903.9687m 
   18.54800m -902.5912m 
   18.55200m -901.2137m 
   18.55600m -899.8361m 
   18.56000m -898.4586m 
   18.56400m -897.0811m 
   18.56800m -895.7036m 
   18.57200m -894.3261m 
   18.57600m -892.9485m 
   18.58000m -891.5710m 
   18.58400m -890.1935m 
   18.58800m -888.8160m 
   18.59200m -887.4385m 
   18.59600m -886.0610m 
   18.60000m -884.6834m 
   18.60400m -883.3059m 
   18.60800m -881.9284m 
   18.61200m -880.5509m 
   18.61600m -879.1734m 
   18.62000m -877.7958m 
   18.62400m -876.4183m 
   18.62800m -875.0408m 
   18.63200m -873.6633m 
   18.63600m -872.2858m 
   18.64000m -870.9082m 
   18.64400m -869.5307m 
   18.64800m -868.1532m 
   18.65200m -866.7757m 
   18.65600m -865.3982m 
   18.66000m -864.0206m 
   18.66400m -862.6431m 
   18.66800m -861.2656m 
   18.67200m -859.8645m 
   18.67600m -858.4507m 
   18.68000m -857.0368m 
   18.68400m -855.6230m 
   18.68800m -854.2092m 
   18.69200m -852.7953m 
   18.69600m -851.3815m 
   18.70000m -849.9676m 
   18.70400m -848.5538m 
   18.70800m -847.1399m 
   18.71200m -845.7261m 
   18.71600m -844.3122m 
   18.72000m -842.8984m 
   18.72400m -841.4845m 
   18.72800m -840.0627m 
   18.73200m -838.5019m 
   18.73600m -836.9410m 
   18.74000m -835.3802m 
   18.74400m -833.8194m 
   18.74800m -832.2586m 
   18.75200m -830.6978m 
   18.75600m -829.1369m 
   18.76000m -827.5761m 
   18.76400m -826.0153m 
   18.76800m -824.4545m 
   18.77200m -822.8936m 
   18.77600m -821.3328m 
   18.78000m -819.7720m 
   18.78400m -818.2112m 
   18.78800m -816.6504m 
   18.79200m -815.0895m 
   18.79600m -813.5287m 
   18.80000m -811.9679m 
   18.80400m -810.4071m 
   18.80800m -808.8462m 
   18.81200m -807.2854m 
   18.81600m -805.7246m 
   18.82000m -804.1638m 
   18.82400m -802.6030m 
   18.82800m -801.0421m 
   18.83200m -799.4813m 
   18.83600m -797.9205m 
   18.84000m -796.3597m 
   18.84400m -794.7988m 
   18.84800m -793.2380m 
   18.85200m -791.6772m 
   18.85600m -790.1164m 
   18.86000m -788.5556m 
   18.86400m -786.9947m 
   18.86800m -785.4339m 
   18.87200m -783.8731m 
   18.87600m -782.3123m 
   18.88000m -780.7514m 
   18.88400m -779.1906m 
   18.88800m -777.6298m 
   18.89200m -776.0690m 
   18.89600m -774.5082m 
   18.90000m -772.9473m 
   18.90400m -771.3865m 
   18.90800m -769.8257m 
   18.91200m -768.2649m 
   18.91600m -766.6184m 
   18.92000m -764.8159m 
   18.92400m -763.0134m 
   18.92800m -761.2109m 
   18.93200m -759.4084m 
   18.93600m -757.6059m 
   18.94000m -755.8034m 
   18.94400m -754.0009m 
   18.94800m -752.1984m 
   18.95200m -750.3959m 
   18.95600m -748.5934m 
   18.96000m -746.7909m 
   18.96400m -744.9884m 
   18.96800m -743.1859m 
   18.97200m -741.3834m 
   18.97600m -739.5809m 
   18.98000m -737.7785m 
   18.98400m -735.9760m 
   18.98800m -734.1735m 
   18.99200m -732.3710m 
   18.99600m -730.5685m 
   19.00000m -728.7660m 
   19.00400m -726.9635m 
   19.00800m -725.1610m 
   19.01200m -723.3585m 
   19.01600m -721.5560m 
   19.02000m -719.7535m 
   19.02400m -717.9510m 
   19.02800m -716.1485m 
   19.03200m -714.3460m 
   19.03600m -712.5435m 
   19.04000m -710.7410m 
   19.04400m -708.9385m 
   19.04800m -707.1360m 
   19.05200m -705.3335m 
   19.05600m -703.5310m 
   19.06000m -701.7285m 
   19.06400m -699.9260m 
   19.06800m -698.1235m 
   19.07200m -696.3210m 
   19.07600m -694.5185m 
   19.08000m -692.7160m 
   19.08400m -690.9135m 
   19.08800m -689.1110m 
   19.09200m -687.3085m 
   19.09600m -685.5060m 
   19.10000m -683.7035m 
   19.10400m -681.9010m 
   19.10800m -680.0985m 
   19.11200m -678.2960m 
   19.11600m -676.4935m 
   19.12000m -674.6910m 
   19.12400m -672.8885m 
   19.12800m -671.0860m 
   19.13200m -669.2835m 
   19.13600m -667.4810m 
   19.14000m -665.5565m 
   19.14400m -663.5699m 
   19.14800m -661.5833m 
   19.15200m -659.5967m 
   19.15600m -657.6101m 
   19.16000m -655.6236m 
   19.16400m -653.6370m 
   19.16800m -651.6504m 
   19.17200m -649.6638m 
   19.17600m -647.6772m 
   19.18000m -645.6906m 
   19.18400m -643.7041m 
   19.18800m -641.7175m 
   19.19200m -639.7309m 
   19.19600m -637.7443m 
   19.20000m -635.7577m 
   19.20400m -633.7711m 
   19.20800m -631.7846m 
   19.21200m -629.7980m 
   19.21600m -627.8114m 
   19.22000m -625.8248m 
   19.22400m -623.8382m 
   19.22800m -621.8490m 
   19.23200m -619.6743m 
   19.23600m -617.4996m 
   19.24000m -615.3249m 
   19.24400m -613.1502m 
   19.24800m -610.9756m 
   19.25200m -608.8009m 
   19.25600m -606.6262m 
   19.26000m -604.4515m 
   19.26400m -602.2768m 
   19.26800m -600.1022m 
   19.27200m -597.9275m 
   19.27600m -595.7528m 
   19.28000m -593.5781m 
   19.28400m -591.4034m 
   19.28800m -589.2288m 
   19.29200m -587.0541m 
   19.29600m -584.8794m 
   19.30000m -582.7047m 
   19.30400m -580.5300m 
   19.30800m -578.3553m 
   19.31200m -576.1807m 
   19.31600m -574.0060m 
   19.32000m -571.8313m 
   19.32400m -569.6566m 
   19.32800m -567.4819m 
   19.33200m -565.3073m 
   19.33600m -563.1326m 
   19.34000m -560.9579m 
   19.34400m -558.7832m 
   19.34800m -556.6085m 
   19.35200m -554.4339m 
   19.35600m -552.2592m 
   19.36000m -550.0845m 
   19.36400m -547.9098m 
   19.36800m -545.7351m 
   19.37200m -543.5605m 
   19.37600m -541.3858m 
   19.38000m -539.2111m 
   19.38400m -537.0364m 
   19.38800m -534.8617m 
   19.39200m -532.6870m 
   19.39600m -530.5124m 
   19.40000m -528.3377m 
   19.40400m -526.1630m 
   19.40800m -523.9883m 
   19.41200m -521.8136m 
   19.41600m -519.6390m 
   19.42000m -517.4643m 
   19.42400m -515.2896m 
   19.42800m -513.1149m 
   19.43200m -510.9402m 
   19.43600m -508.7656m 
   19.44000m -506.5909m 
   19.44400m -504.4162m 
   19.44800m -502.2415m 
   19.45200m -500.0668m 
   19.45600m -497.8922m 
   19.46000m -495.7175m 
   19.46400m -493.5428m 
   19.46800m -491.3681m 
   19.47200m -489.1934m 
   19.47600m -487.0187m 
   19.48000m -484.8441m 
   19.48400m -482.6694m 
   19.48800m -480.4947m 
   19.49200m -478.3200m 
   19.49600m -476.1453m 
   19.50000m -473.9707m 
   19.50400m -471.7960m 
   19.50800m -469.6213m 
   19.51200m -467.4466m 
   19.51600m -465.2719m 
   19.52000m -463.0094m 
   19.52400m -460.6712m 
   19.52800m -458.3330m 
   19.53200m -455.9949m 
   19.53600m -453.6567m 
   19.54000m -451.3185m 
   19.54400m -448.9803m 
   19.54800m -446.6422m 
   19.55200m -444.3040m 
   19.55600m -441.9658m 
   19.56000m -439.6276m 
   19.56400m -437.2894m 
   19.56800m -434.9513m 
   19.57200m -432.6131m 
   19.57600m -430.2749m 
   19.58000m -427.9367m 
   19.58400m -425.5986m 
   19.58800m -423.2604m 
   19.59200m -420.9222m 
   19.59600m -418.5840m 
   19.60000m -416.2459m 
   19.60400m -413.9077m 
   19.60800m -411.4994m 
   19.61200m -409.0611m 
   19.61600m -406.6227m 
   19.62000m -404.1844m 
   19.62400m -401.7460m 
   19.62800m -399.3077m 
   19.63200m -396.8693m 
   19.63600m -394.4310m 
   19.64000m -391.9926m 
   19.64400m -389.5543m 
   19.64800m -387.1159m 
   19.65200m -384.6775m 
   19.65600m -382.2392m 
   19.66000m -379.8008m 
   19.66400m -377.3625m 
   19.66800m -374.9241m 
   19.67200m -372.4858m 
   19.67600m -370.0474m 
   19.68000m -367.6091m 
   19.68400m -365.1707m 
   19.68800m -362.7324m 
   19.69200m -360.2940m 
   19.69600m -357.8556m 
   19.70000m -355.4173m 
   19.70400m -352.9789m 
   19.70800m -350.5406m 
   19.71200m -348.1022m 
   19.71600m -345.6639m 
   19.72000m -343.2255m 
   19.72400m -340.7872m 
   19.72800m -338.3488m 
   19.73200m -335.9105m 
   19.73600m -333.4721m 
   19.74000m -331.0338m 
   19.74400m -328.5954m 
   19.74800m -326.1570m 
   19.75200m -323.7187m 
   19.75600m -321.2803m 
   19.76000m -318.8420m 
   19.76400m -316.4036m 
   19.76800m -313.9653m 
   19.77200m -311.5269m 
   19.77600m -309.0886m 
   19.78000m -306.6502m 
   19.78400m -304.2119m 
   19.78800m -301.7735m 
   19.79200m -299.3351m 
   19.79600m -296.8968m 
   19.80000m -294.4584m 
   19.80400m -292.0201m 
   19.80800m -289.5817m 
   19.81200m -287.1434m 
   19.81600m -284.7050m 
   19.82000m -282.2667m 
   19.82400m -279.8283m 
   19.82800m -277.3900m 
   19.83200m -274.9516m 
   19.83600m -272.5132m 
   19.84000m -270.0749m 
   19.84400m -267.6365m 
   19.84800m -265.1982m 
   19.85200m -262.7598m 
   19.85600m -260.3215m 
   19.86000m -257.8831m 
   19.86400m -255.4448m 
   19.86800m -253.0064m 
   19.87200m -250.5681m 
   19.87600m -248.1297m 
   19.88000m -245.6913m 
   19.88400m -243.2530m 
   19.88800m -240.7376m 
   19.89200m -238.2051m 
   19.89600m -235.6725m 
   19.90000m -233.1400m 
   19.90400m -230.6074m 
   19.90800m -228.0749m 
   19.91200m -225.5423m 
   19.91600m -223.0098m 
   19.92000m -220.4772m 
   19.92400m -217.9447m 
   19.92800m -215.4121m 
   19.93200m -212.8795m 
   19.93600m -210.3470m 
   19.94000m -207.8144m 
   19.94400m -205.2819m 
   19.94800m -202.7493m 
   19.95200m -200.2168m 
   19.95600m -197.6842m 
   19.96000m -195.1517m 
   19.96400m -192.6191m 
   19.96800m -190.0866m 
   19.97200m -187.5540m 
   19.97600m -185.0214m 
   19.98000m -182.4889m 
   19.98400m -179.9563m 
   19.98800m -177.4238m 
   19.99200m -174.8912m 
   19.99600m -172.3587m 
   20.00000m -169.8261m 
y

          ***** job concluded
 ******  
 * example rlc-3

 ****** job statistics summary tnom=  25.000 temp=  25.000 ******

  ******  HSPICE Threads Information  ******

  Command Line Threads Count :     1
  Available CPU Count        :     8
  Actual Threads Count       :     1


  ******  Circuit Statistics  ******
  # nodes       =       8 # elements   =      11
  # resistors   =       3 # capacitors =       4 # inductors   =       3
  # mutual_inds =       0 # vccs       =       0 # vcvs        =       0
  # cccs        =       0 # ccvs       =       0 # volt_srcs   =       1
  # curr_srcs   =       0 # diodes     =       0 # bjts        =       0
  # jfets       =       0 # mosfets    =       0 # U elements  =       0
  # T elements  =       0 # W elements =       0 # B elements  =       0
  # S elements  =       0 # P elements =       0 # va device   =       0
  # vector_srcs =       0 # N elements =       0


  ******  Runtime Statistics (seconds)  ******

  analysis           time    # points   tot. iter  conv.iter
  op point           0.09           1           4
  transient          0.00        5001         336         168 rev=        34
  readin             0.86
  errchk             0.00
  setup              0.01
  output             0.00


           peak memory used         71.98 megabytes
           total cpu time            1.52 seconds
           total elapsed time        2.60 seconds
           job started at     17:48:11 12/06/2022
           job ended   at     17:48:14 12/06/2022
           job total runtime         2.60 seconds


  lic: Release hspice token(s) 
 lic: total license checkout elapse time:        1.04(s)
